api/pglib_opf_case3375wp_k__api.m
%%%%%%%%%%%%%%%%%%%%%%%%%%%%%%%%%%%%%%%%%%%%%%%%%%%%%%%%%%%%%%%%%%%%%%%%%%%
%%%%                                                                  %%%%%
%%%%    IEEE PES Power Grid Library - Optimal Power Flow - v18.08     %%%%%
%%%%          (https://github.com/power-grid-lib/pglib-opf)           %%%%%
%%%%             Benchmark Group - Active Power Increase              %%%%%
%%%%                        08 - August - 2018                        %%%%%
%%%%                                                                  %%%%%
%%%%%%%%%%%%%%%%%%%%%%%%%%%%%%%%%%%%%%%%%%%%%%%%%%%%%%%%%%%%%%%%%%%%%%%%%%%
function mpc = pglib_opf_case3375wp_k__api
mpc.version = '2';
mpc.baseMVA = 100.0;

%% area data
%	area	refbus
mpc.areas = [
	1	 1;
];

%% bus data
%	bus_i	type	Pd	Qd	Gs	Bs	area	Vm	Va	baseKV	zone	Vmax	Vmin
mpc.bus = [
	10000	 1	 0.0	 0.0	 0.0	 0.0	 0	    1.00000	    0.00000	 400.0	 0	    1.05000	    0.95000;
	10001	 1	 0.0	 0.0	 0.0	 0.0	 0	    1.00000	    0.00000	 400.0	 0	    1.05000	    0.95000;
	10002	 1	 0.0	 0.0	 0.0	 0.0	 0	    1.03000	    0.00000	 220.0	 0	    1.11000	    0.95000;
	10003	 1	 0.0	 0.0	 0.0	 0.0	 0	    1.00000	    0.00000	 400.0	 0	    1.05000	    0.95000;
	10004	 1	 0.0	 0.0	 0.0	 0.0	 0	    1.00000	    0.00000	 400.0	 0	    1.05000	    0.95000;
	10005	 1	 0.0	 0.0	 0.0	 0.0	 0	    1.00000	    0.00000	 400.0	 0	    1.05000	    0.95000;
	10006	 1	 0.0	 0.0	 0.0	 0.0	 0	    1.00000	    0.00000	 400.0	 0	    1.05000	    0.95000;
	10007	 1	 0.0	 0.0	 0.0	 0.0	 0	    1.03000	    0.00000	 220.0	 0	    1.11000	    0.95000;
	10008	 1	 0.0	 0.0	 0.0	 0.0	 0	    1.03000	    0.00000	 220.0	 0	    1.11000	    0.95000;
	10009	 1	 0.0	 0.0	 0.0	 0.0	 0	    1.00000	    0.00000	 400.0	 0	    1.05000	    0.95000;
	10010	 1	 0.0	 0.0	 0.0	 0.0	 0	    1.00000	    0.00000	 400.0	 0	    1.05000	    0.95000;
	10011	 1	 0.0	 0.0	 0.0	 0.0	 0	    1.00000	    0.00000	 400.0	 0	    1.05000	    0.95000;
	10012	 1	 0.0	 0.0	 0.0	 0.0	 0	    1.00000	    0.00000	 400.0	 0	    1.05000	    0.95000;
	10013	 1	 0.0	 0.0	 0.0	 0.0	 0	    1.00000	    0.00000	 400.0	 0	    1.05000	    0.95000;
	10014	 1	 0.0	 0.0	 0.0	 0.0	 0	    1.00000	    0.00000	 400.0	 0	    1.05000	    0.95000;
	10015	 1	 0.0	 0.0	 0.0	 0.0	 0	    1.00000	    0.00000	 400.0	 0	    1.05000	    0.95000;
	10016	 1	 0.0	 0.0	 0.0	 0.0	 0	    1.00000	    0.00000	 400.0	 0	    1.05000	    0.95000;
	10017	 1	 0.0	 0.0	 0.0	 0.0	 0	    1.00000	    0.00000	 400.0	 0	    1.05000	    0.95000;
	10018	 1	 0.0	 0.0	 0.0	 0.0	 0	    1.00000	    0.00000	 400.0	 0	    1.05000	    0.95000;
	10019	 1	 0.0	 0.0	 0.0	 0.0	 0	    1.00000	    0.00000	 400.0	 0	    1.05000	    0.95000;
	10020	 1	 0.0	 0.0	 0.0	 0.0	 0	    1.00000	    0.00000	 400.0	 0	    1.05000	    0.95000;
	10021	 1	 0.0	 0.0	 0.0	 0.0	 0	    1.03000	    0.00000	 220.0	 0	    1.11000	    0.95000;
	10022	 1	 0.0	 0.0	 0.0	 0.0	 0	    1.03000	    0.00000	 220.0	 0	    1.11000	    0.95000;
	10023	 1	 0.0	 0.0	 0.0	 0.0	 0	    1.00000	    0.00000	 400.0	 0	    1.05000	    0.95000;
	10024	 1	 0.0	 0.0	 0.0	 0.0	 0	    1.00000	    0.00000	 400.0	 0	    1.05000	    0.95000;
	10025	 1	 0.0	 0.0	 0.0	 0.0	 0	    1.00000	    0.00000	 400.0	 0	    1.05000	    0.95000;
	10026	 1	 0.0	 0.0	 0.0	 0.0	 0	    1.00000	    0.00000	 400.0	 0	    1.05000	    0.95000;
	10027	 1	 0.0	 0.0	 0.0	 0.0	 0	    1.00000	    0.00000	 400.0	 0	    1.05000	    0.95000;
	10028	 1	 0.0	 0.0	 0.0	 0.0	 0	    1.00000	    0.00000	 400.0	 0	    1.05000	    0.95000;
	10029	 1	 0.0	 0.0	 0.0	 0.0	 0	    1.00000	    0.00000	 400.0	 0	    1.05000	    0.95000;
	10030	 1	 0.0	 0.0	 0.0	 0.0	 0	    1.00000	    0.00000	 400.0	 0	    1.05000	    0.95000;
	10031	 1	 0.0	 0.0	 0.0	 0.0	 0	    1.03000	    0.00000	 220.0	 0	    1.11000	    0.95000;
	10032	 1	 0.0	 0.0	 0.0	 0.0	 0	    1.00000	    0.00000	 400.0	 0	    1.05000	    0.95000;
	10033	 1	 0.0	 0.0	 0.0	 0.0	 0	    1.00000	    0.00000	 400.0	 0	    1.05000	    0.95000;
	10034	 1	 0.0	 0.0	 0.0	 0.0	 0	    1.00000	    0.00000	 400.0	 0	    1.05000	    0.95000;
	10035	 1	 0.0	 0.0	 0.0	 0.0	 0	    1.03000	    0.00000	 220.0	 0	    1.11000	    0.95000;
	10036	 1	 0.0	 0.0	 0.0	 0.0	 0	    1.03000	    0.00000	 220.0	 0	    1.11000	    0.95000;
	10037	 1	 0.0	 0.0	 0.0	 0.0	 0	    1.00000	    0.00000	 400.0	 0	    1.05000	    0.95000;
	10038	 1	 0.0	 0.0	 0.0	 0.0	 0	    1.00000	    0.00000	 400.0	 0	    1.05000	    0.95000;
	10039	 1	 0.0	 0.0	 0.0	 0.0	 0	    1.00000	    0.00000	 400.0	 0	    1.05000	    0.95000;
	10040	 1	 0.0	 0.0	 0.0	 0.0	 0	    1.00000	    0.00000	 400.0	 0	    1.05000	    0.95000;
	10041	 1	 0.0	 0.0	 0.0	 0.0	 0	    1.00000	    0.00000	 400.0	 0	    1.05000	    0.95000;
	10042	 1	 0.0	 0.0	 0.0	 0.0	 0	    1.00000	    0.00000	 400.0	 0	    1.05000	    0.95000;
	10043	 1	 0.0	 0.0	 0.0	 0.0	 0	    1.03000	    0.00000	 220.0	 0	    1.11000	    0.95000;
	10044	 1	 0.0	 0.0	 0.0	 0.0	 0	    1.03000	    0.00000	 220.0	 0	    1.11000	    0.95000;
	10045	 1	 0.0	 0.0	 0.0	 0.0	 0	    1.03000	    0.00000	 220.0	 0	    1.11000	    0.95000;
	10046	 1	 0.0	 0.0	 0.0	 0.0	 0	    1.03000	    0.00000	 220.0	 0	    1.11000	    0.95000;
	10047	 1	 0.0	 0.0	 0.0	 0.0	 0	    1.00000	    0.00000	 400.0	 0	    1.05000	    0.95000;
	10048	 1	 0.0	 0.0	 0.0	 0.0	 0	    1.00000	    0.00000	 400.0	 0	    1.05000	    0.95000;
	10049	 1	 0.0	 0.0	 0.0	 0.0	 0	    1.00000	    0.00000	 400.0	 0	    1.05000	    0.95000;
	10050	 1	 0.0	 0.0	 0.0	 0.0	 0	    1.00000	    0.00000	 400.0	 0	    1.05000	    0.95000;
	10051	 1	 0.0	 0.0	 0.0	 0.0	 0	    1.03000	    0.00000	 220.0	 0	    1.11000	    0.95000;
	10052	 1	 0.0	 0.0	 0.0	 0.0	 0	    1.00000	    0.00000	 400.0	 0	    1.05000	    0.95000;
	10053	 1	 0.0	 0.0	 0.0	 0.0	 0	    1.03000	    0.00000	 220.0	 0	    1.11000	    0.95000;
	10054	 1	 0.0	 0.0	 0.0	 0.0	 0	    1.03000	    0.00000	 220.0	 0	    1.11000	    0.95000;
	10055	 1	 0.0	 0.0	 0.0	 0.0	 0	    1.03000	    0.00000	 220.0	 0	    1.11000	    0.95000;
	10056	 1	 0.0	 0.0	 0.0	 0.0	 0	    1.00000	    0.00000	 400.0	 0	    1.05000	    0.95000;
	10057	 1	 0.0	 0.0	 0.0	 0.0	 0	    1.00000	    0.00000	 400.0	 0	    1.05000	    0.95000;
	10058	 1	 0.0	 0.0	 0.0	 0.0	 0	    1.03000	    0.00000	 220.0	 0	    1.11000	    0.95000;
	10059	 1	 0.0	 0.0	 0.0	 0.0	 0	    1.00000	    0.00000	 400.0	 0	    1.05000	    0.95000;
	10060	 1	 0.0	 0.0	 0.0	 0.0	 0	    1.00000	    0.00000	 400.0	 0	    1.05000	    0.95000;
	10061	 1	 0.0	 0.0	 0.0	 0.0	 0	    1.00000	    0.00000	 400.0	 0	    1.05000	    0.95000;
	10062	 1	 0.0	 0.0	 0.0	 0.0	 0	    1.00000	    0.00000	 400.0	 0	    1.05000	    0.95000;
	10063	 1	 0.0	 0.0	 0.0	 0.0	 0	    1.00000	    0.00000	 400.0	 0	    1.05000	    0.95000;
	10064	 1	 0.0	 0.0	 0.0	 0.0	 0	    1.03000	    0.00000	 220.0	 0	    1.11000	    0.95000;
	10065	 1	 0.0	 0.0	 0.0	 0.0	 0	    1.00000	    0.00000	 400.0	 0	    1.05000	    0.95000;
	10066	 1	 0.0	 0.0	 0.0	 0.0	 0	    1.00000	    0.00000	 400.0	 0	    1.05000	    0.95000;
	10067	 1	 0.0	 0.0	 0.0	 0.0	 0	    1.03000	    0.00000	 220.0	 0	    1.11000	    0.95000;
	10068	 1	 0.0	 0.0	 0.0	 0.0	 0	    1.00000	    0.00000	 400.0	 0	    1.05000	    0.95000;
	10069	 1	 0.0	 0.0	 0.0	 0.0	 0	    1.03000	    0.00000	 220.0	 0	    1.11000	    0.95000;
	10070	 1	 0.0	 0.0	 0.0	 0.0	 0	    1.00000	    0.00000	 400.0	 0	    1.05000	    0.95000;
	10071	 2	 18.45	 8.00	 0.0	 0.0	 0	    1.03000	    0.00000	 220.0	 0	    1.11000	    0.95000;
	10072	 1	 0.0	 0.0	 0.0	 0.0	 0	    1.03000	    0.00000	 220.0	 0	    1.11000	    0.95000;
	10073	 1	 0.0	 0.0	 0.0	 0.0	 1	    1.03000	    0.00000	 220.0	 0	    1.11000	    0.95000;
	10074	 1	 0.0	 0.0	 0.0	 0.0	 0	    1.03000	    0.00000	 220.0	 0	    1.11000	    0.95000;
	10075	 1	 0.0	 0.0	 0.0	 0.0	 0	    1.03000	    0.00000	 220.0	 0	    1.11000	    0.95000;
	10076	 1	 0.0	 0.0	 0.0	 0.0	 0	    1.00000	    0.00000	 400.0	 0	    1.05000	    0.95000;
	10077	 1	 0.0	 0.0	 0.0	 0.0	 0	    1.00000	    0.00000	 400.0	 0	    1.05000	    0.95000;
	10078	 1	 305.50	 -14.00	 0.0	 0.0	 0	    1.00000	    0.00000	 400.0	 0	    1.05000	    0.95000;
	10079	 2	 -1529.60	 4542.90	 0.0	 0.0	 0	    1.00000	    0.00000	 400.0	 0	    1.05000	    0.95000;
	10080	 2	 -159.10	 -181.00	 0.0	 0.0	 0	    1.00000	    0.00000	 400.0	 0	    1.05000	    0.95000;
	10081	 1	 -1078.30	 -374.10	 0.0	 0.0	 0	    1.00000	    0.00000	 400.0	 0	    1.05000	    0.95000;
	10082	 1	 1087.71	 310.20	 0.0	 0.0	 0	    1.00000	    0.00000	 400.0	 0	    1.05000	    0.95000;
	10083	 1	 111.86	 26.00	 0.0	 0.0	 0	    1.00000	    0.00000	 400.0	 0	    1.05000	    0.95000;
	10084	 1	 0.69	 160.00	 0.0	 0.0	 0	    1.00000	    0.00000	 400.0	 0	    1.05000	    0.95000;
	10085	 1	 186.36	 183.60	 0.0	 0.0	 0	    1.00000	    0.00000	 400.0	 0	    1.05000	    0.95000;
	10086	 1	 332.82	 221.60	 0.0	 0.0	 0	    1.00000	    0.00000	 400.0	 0	    1.05000	    0.95000;
	10087	 1	 0.0	 0.0	 0.0	 0.0	 0	    1.00000	    0.00000	 400.0	 0	    1.05000	    0.95000;
	10088	 1	 0.0	 0.0	 0.0	 0.0	 0	    1.03000	    0.00000	 220.0	 0	    1.11000	    0.95000;
	10089	 1	 0.0	 0.0	 0.0	 0.0	 0	    1.03000	    0.00000	 220.0	 0	    1.11000	    0.95000;
	10090	 2	 316.44	 279.60	 0.0	 0.0	 0	    1.00000	    0.00000	 400.0	 0	    1.05000	    0.95000;
	10091	 1	 108.63	 111.80	 0.0	 0.0	 0	    1.00000	    0.00000	 400.0	 0	    1.05000	    0.95000;
	10092	 1	 0.0	 0.0	 0.0	 0.0	 0	    1.03000	    0.00000	 220.0	 0	    1.11000	    0.95000;
	10093	 1	 0.0	 0.0	 0.0	 0.0	 0	    1.03000	    0.00000	 220.0	 0	    1.11000	    0.95000;
	10094	 2	 0.0	 0.0	 0.0	 0.0	 0	    1.00000	    0.00000	 400.0	 0	    1.05000	    0.95000;
	10095	 2	 4.40	 -2590.10	 0.0	 0.0	 0	    1.00000	    0.00000	 400.0	 0	    1.05000	    0.95000;
	10096	 1	 562.77	 79.10	 0.0	 0.0	 0	    1.00000	    0.00000	 400.0	 0	    1.05000	    0.95000;
	10097	 1	 693.08	 147.90	 0.0	 0.0	 0	    1.00000	    0.00000	 400.0	 0	    1.05000	    0.95000;
	10098	 1	 607.75	 265.10	 0.0	 0.0	 0	    1.00000	    0.00000	 400.0	 0	    1.05000	    0.95000;
	10099	 1	 0.0	 0.0	 0.0	 0.0	 0	    1.00000	    0.00000	 400.0	 0	    1.05000	    0.95000;
	10100	 2	 0.0	 0.0	 0.0	 0.0	 0	    1.00000	    0.00000	 400.0	 0	    1.05000	    0.95000;
	10101	 1	 0.0	 0.0	 0.0	 0.0	 0	    1.03000	    0.00000	 220.0	 0	    1.11000	    0.95000;
	10102	 1	 138.39	 25.00	 0.0	 0.0	 0	    1.03000	    0.00000	 220.0	 0	    1.11000	    0.95000;
	10103	 1	 0.0	 0.0	 0.0	 0.0	 0	    1.00000	    0.00000	 400.0	 0	    1.05000	    0.95000;
	10104	 2	 230.87	 48.70	 0.0	 0.0	 0	    1.00000	    0.00000	 400.0	 0	    1.05000	    0.95000;
	10105	 1	 0.0	 0.0	 0.0	 0.0	 0	    1.03000	    0.00000	 220.0	 0	    1.11000	    0.95000;
	10106	 1	 0.0	 0.0	 0.0	 0.0	 0	    1.00000	    0.00000	 400.0	 0	    1.05000	    0.95000;
	10107	 1	 0.0	 0.0	 0.0	 0.0	 0	    1.00000	    0.00000	 400.0	 0	    1.05000	    0.95000;
	10108	 1	 0.0	 0.0	 0.0	 0.0	 0	    1.00000	    0.00000	 400.0	 0	    1.05000	    0.95000;
	10109	 1	 0.0	 0.0	 0.0	 0.0	 0	    1.00000	    0.00000	 400.0	 0	    1.05000	    0.95000;
	10110	 1	 0.0	 0.0	 0.0	 0.0	 0	    1.00000	    0.00000	 400.0	 0	    1.05000	    0.95000;
	10111	 1	 0.0	 0.0	 0.0	 0.0	 0	    1.00000	    0.00000	 400.0	 0	    1.05000	    0.95000;
	10112	 1	 0.0	 0.0	 0.0	 0.0	 0	    1.03000	    0.00000	 220.0	 0	    1.11000	    0.95000;
	10113	 1	 0.0	 0.0	 0.0	 0.0	 0	    1.00000	    0.00000	 400.0	 0	    1.05000	    0.95000;
	10114	 1	 0.0	 0.0	 0.0	 0.0	 0	    1.03000	    0.00000	 220.0	 0	    1.11000	    0.95000;
	10115	 2	 0.0	 0.0	 0.0	 0.0	 0	    1.00000	    0.00000	 400.0	 0	    1.05000	    0.95000;
	10116	 2	 0.0	 0.0	 0.0	 0.0	 0	    1.00000	    0.00000	 400.0	 0	    1.05000	    0.95000;
	10117	 1	 0.0	 0.0	 0.0	 0.0	 0	    1.00000	    0.00000	 400.0	 0	    1.05000	    0.95000;
	10118	 2	 0.0	 0.0	 0.0	 0.0	 0	    1.00000	    0.00000	 400.0	 0	    1.05000	    0.95000;
	10119	 1	 0.0	 0.0	 0.0	 0.0	 0	    1.00000	    0.00000	 400.0	 0	    1.05000	    0.95000;
	10120	 1	 0.0	 0.0	 0.0	 0.0	 0	    1.00000	    0.00000	 400.0	 0	    1.05000	    0.95000;
	10121	 1	 92.26	 20.00	 0.0	 0.0	 0	    1.03000	    0.00000	 220.0	 0	    1.11000	    0.95000;
	10122	 1	 0.0	 0.0	 0.0	 0.0	 0	    1.03000	    0.00000	 220.0	 0	    1.11000	    0.95000;
	10123	 1	 0.0	 0.0	 0.0	 0.0	 0	    1.00000	    0.00000	 400.0	 0	    1.05000	    0.95000;
	10124	 1	 0.0	 0.0	 0.0	 0.0	 0	    1.00000	    0.00000	 400.0	 0	    1.05000	    0.95000;
	10125	 1	 0.0	 0.0	 0.0	 0.0	 0	    1.00000	    0.00000	 400.0	 0	    1.05000	    0.95000;
	10126	 2	 0.0	 0.0	 0.0	 0.0	 0	    1.00000	    0.00000	 400.0	 0	    1.05000	    0.95000;
	10127	 1	 0.0	 0.0	 0.0	 0.0	 0	    1.03000	    0.00000	 220.0	 0	    1.11000	    0.95000;
	10128	 1	 0.0	 0.0	 0.0	 0.0	 0	    1.03000	    0.00000	 220.0	 0	    1.11000	    0.95000;
	10129	 2	 0.23	 100.00	 0.0	 0.0	 0	    1.00000	    0.00000	 400.0	 0	    1.05000	    0.95000;
	10130	 1	 0.0	 0.0	 0.0	 0.0	 0	    1.00000	    0.00000	 400.0	 0	    1.05000	    0.95000;
	10131	 1	 0.0	 0.0	 0.0	 0.0	 0	    1.00000	    0.00000	 400.0	 0	    1.05000	    0.95000;
	10132	 2	 0.0	 0.0	 0.0	 0.0	 0	    1.00000	    0.00000	 400.0	 0	    1.05000	    0.95000;
	10133	 1	 0.0	 0.0	 0.0	 0.0	 0	    1.00000	    0.00000	 400.0	 0	    1.05000	    0.95000;
	10134	 1	 0.0	 0.0	 0.0	 0.0	 0	    1.00000	    0.00000	 400.0	 0	    1.05000	    0.95000;
	10135	 1	 0.0	 0.0	 0.0	 0.0	 0	    1.03000	    0.00000	 220.0	 0	    1.11000	    0.95000;
	10136	 1	 0.0	 0.0	 0.0	 0.0	 0	    1.03000	    0.00000	 220.0	 0	    1.11000	    0.95000;
	10137	 1	 0.0	 0.0	 0.0	 0.0	 0	    1.03000	    0.00000	 220.0	 0	    1.11000	    0.95000;
	10138	 1	 0.0	 0.0	 0.0	 0.0	 0	    1.00000	    0.00000	 400.0	 0	    1.05000	    0.95000;
	10139	 2	 0.0	 0.0	 0.0	 0.0	 0	    1.00000	    0.00000	 400.0	 0	    1.05000	    0.95000;
	10140	 2	 0.0	 0.0	 0.0	 0.0	 0	    1.00000	    0.00000	 400.0	 0	    1.05000	    0.95000;
	10141	 2	 0.0	 0.0	 0.0	 0.0	 0	    1.00000	    0.00000	 400.0	 0	    1.05000	    0.95000;
	10142	 1	 0.0	 0.0	 0.0	 0.0	 0	    1.00000	    0.00000	 400.0	 0	    1.05000	    0.95000;
	10143	 1	 0.0	 0.0	 0.0	 0.0	 0	    1.00000	    0.00000	 400.0	 0	    1.05000	    0.95000;
	10144	 1	 0.0	 0.0	 0.0	 0.0	 0	    1.00000	    0.00000	 400.0	 0	    1.05000	    0.95000;
	10145	 1	 0.0	 0.0	 0.0	 0.0	 0	    1.00000	    0.00000	 400.0	 0	    1.05000	    0.95000;
	10146	 2	 0.0	 0.0	 0.0	 0.0	 0	    1.03000	    0.00000	 220.0	 0	    1.11000	    0.95000;
	10147	 1	 0.0	 0.0	 0.0	 0.0	 0	    1.00000	    0.00000	 400.0	 0	    1.05000	    0.95000;
	10148	 1	 0.0	 0.0	 0.0	 0.0	 0	    1.03000	    0.00000	 220.0	 0	    1.11000	    0.95000;
	10149	 1	 0.0	 0.0	 0.0	 0.0	 0	    1.03000	    0.00000	 220.0	 0	    1.11000	    0.95000;
	10150	 2	 0.0	 0.0	 0.0	 0.0	 0	    1.00000	    0.00000	 400.0	 0	    1.05000	    0.95000;
	10151	 1	 0.0	 0.0	 0.0	 0.0	 0	    1.00000	    0.00000	 400.0	 0	    1.05000	    0.95000;
	10152	 1	 0.0	 0.0	 0.0	 0.0	 0	    1.00000	    0.00000	 400.0	 0	    1.05000	    0.95000;
	10153	 1	 0.0	 0.0	 0.0	 0.0	 0	    1.00000	    0.00000	 400.0	 0	    1.05000	    0.95000;
	10154	 1	 92.26	 20.00	 0.0	 0.0	 0	    1.03000	    0.00000	 220.0	 0	    1.11000	    0.95000;
	10155	 1	 0.0	 0.0	 0.0	 0.0	 0	    1.03000	    0.00000	 220.0	 0	    1.11000	    0.95000;
	10156	 1	 0.0	 0.0	 0.0	 0.0	 0	    1.00000	    0.00000	 400.0	 0	    1.05000	    0.95000;
	10157	 1	 0.0	 0.0	 0.0	 0.0	 0	    1.03000	    0.00000	 220.0	 0	    1.11000	    0.95000;
	10158	 1	 0.0	 0.0	 0.0	 0.0	 0	    1.00000	    0.00000	 400.0	 0	    1.05000	    0.95000;
	10159	 1	 0.0	 0.0	 0.0	 0.0	 0	    1.03000	    0.00000	 220.0	 0	    1.11000	    0.95000;
	10160	 1	 0.0	 0.0	 0.0	 0.0	 0	    1.03000	    0.00000	 220.0	 0	    1.11000	    0.95000;
	10161	 1	 0.0	 0.0	 0.0	 0.0	 0	    1.00000	    0.00000	 400.0	 0	    1.05000	    0.95000;
	10162	 1	 0.0	 0.0	 0.0	 0.0	 0	    1.03000	    0.00000	 220.0	 0	    1.11000	    0.95000;
	10163	 1	 0.0	 0.0	 0.0	 0.0	 0	    1.03000	    0.00000	 220.0	 0	    1.11000	    0.95000;
	10164	 1	 0.0	 0.0	 0.0	 0.0	 0	    1.00000	    0.00000	 400.0	 0	    1.05000	    0.95000;
	10165	 1	 0.0	 0.0	 0.0	 0.0	 0	    1.00000	    0.00000	 400.0	 0	    1.05000	    0.95000;
	10166	 1	 0.0	 0.0	 0.0	 0.0	 0	    1.03000	    0.00000	 220.0	 0	    1.11000	    0.95000;
	10167	 1	 0.0	 0.0	 0.0	 0.0	 0	    1.00000	    0.00000	 400.0	 0	    1.05000	    0.95000;
	10168	 1	 0.0	 0.0	 0.0	 0.0	 0	    1.00000	    0.00000	 400.0	 0	    1.05000	    0.95000;
	10169	 1	 0.0	 0.0	 0.0	 0.0	 0	    1.00000	    0.00000	 400.0	 0	    1.05000	    0.95000;
	10170	 1	 0.0	 0.0	 0.0	 0.0	 0	    1.00000	    0.00000	 400.0	 0	    1.05000	    0.95000;
	10171	 2	 -104.80	 -159.00	 0.0	 0.0	 0	    1.00000	    0.00000	 400.0	 0	    1.05000	    0.95000;
	10172	 1	 247.40	 -57.50	 0.0	 0.0	 0	    1.00000	    0.00000	 400.0	 0	    1.05000	    0.95000;
	10173	 1	 247.40	 -57.50	 0.0	 0.0	 0	    1.00000	    0.00000	 400.0	 0	    1.05000	    0.95000;
	10174	 1	 428.42	 403.50	 0.0	 0.0	 0	    1.00000	    0.00000	 400.0	 0	    1.05000	    0.95000;
	10176	 2	 -249.90	 162.60	 0.0	 0.0	 0	    1.00000	    0.00000	 400.0	 0	    1.05000	    0.95000;
	10177	 2	 -249.90	 162.60	 0.0	 0.0	 0	    1.00000	    0.00000	 400.0	 0	    1.05000	    0.95000;
	10178	 1	 60.54	 207.20	 0.0	 0.0	 0	    1.00000	    0.00000	 400.0	 0	    1.05000	    0.95000;
	10179	 1	 437.65	 54.60	 0.0	 0.0	 0	    1.00000	    0.00000	 400.0	 0	    1.05000	    0.95000;
	10180	 1	 73.60	 -95.60	 0.0	 0.0	 0	    1.03000	    0.00000	 220.0	 0	    1.11000	    0.95000;
	10181	 1	 73.60	 -95.60	 0.0	 0.0	 0	    1.03000	    0.00000	 220.0	 0	    1.11000	    0.95000;
	10182	 1	 107.20	 -44.40	 0.0	 0.0	 0	    1.00000	    0.00000	 400.0	 0	    1.05000	    0.95000;
	10183	 1	 99.18	 8.00	 0.0	 0.0	 0	    1.00000	    0.00000	 400.0	 0	    1.05000	    0.95000;
	10184	 1	 80.73	 49.00	 0.0	 0.0	 0	    1.03000	    0.00000	 220.0	 0	    1.11000	    0.95000;
	10185	 1	 0.0	 0.0	 0.0	 0.0	 0	    1.00000	    0.00000	 400.0	 0	    1.05000	    0.95000;
	10186	 2	 0.0	 0.0	 0.0	 0.0	 0	    1.03000	    0.00000	 220.0	 0	    1.11000	    0.95000;
	10187	 2	 0.0	 0.0	 0.0	 0.0	 0	    1.03000	    0.00000	 220.0	 0	    1.11000	    0.95000;
	10188	 2	 0.0	 0.0	 0.0	 0.0	 0	    1.00000	    0.00000	 400.0	 0	    1.05000	    0.95000;
	10189	 2	 10.20	 0.00	 0.0	 0.0	 0	    1.00000	    0.00000	 400.0	 0	    1.05000	    0.95000;
	10190	 2	 0.0	 0.0	 0.0	 0.0	 0	    1.00000	    0.00000	 400.0	 0	    1.05000	    0.95000;
	10191	 2	 0.0	 0.0	 0.0	 0.0	 0	    1.00000	    0.00000	 400.0	 0	    1.05000	    0.95000;
	10192	 2	 0.0	 0.0	 0.0	 0.0	 0	    1.03000	    0.00000	 220.0	 0	    1.11000	    0.95000;
	10193	 1	 0.0	 0.0	 0.0	 0.0	 0	    1.03000	    0.00000	 220.0	 0	    1.11000	    0.95000;
	10194	 2	 0.0	 0.0	 0.0	 0.0	 0	    1.00000	    0.00000	 400.0	 0	    1.05000	    0.95000;
	10195	 1	 0.0	 0.0	 0.0	 0.0	 0	    1.00000	    0.00000	 400.0	 0	    1.05000	    0.95000;
	10196	 2	 0.0	 0.0	 0.0	 0.0	 0	    1.00000	    0.00000	 400.0	 0	    1.05000	    0.95000;
	10197	 1	 340.20	 51.90	 0.0	 0.0	 0	    1.00000	    0.00000	 400.0	 0	    1.05000	    0.95000;
	10198	 1	 0.0	 0.0	 0.0	 0.0	 0	    1.00000	    0.00000	 400.0	 0	    1.05000	    0.95000;
	10199	 1	 355.19	 40.00	 0.0	 0.0	 0	    1.03000	    0.00000	 220.0	 0	    1.11000	    0.95000;
	10200	 1	 0.0	 0.0	 0.0	 0.0	 0	    1.03000	    0.00000	 220.0	 0	    1.11000	    0.95000;
...
];

%% generator data
%	bus	Pg	Qg	Qmax	Qmin	Vg	mBase	status	Pmax	Pmin	Pc1	Pc2	Qc1min	Qc1max	Qc2min	Qc2max	ramp_agc	ramp_10	ramp_30	ramp_q	apf
mpc.gen = [
	10071	 197.975	 0.0	 165.0	 -165.0	 1.07617	 285.0	 1	 329	 66.95	 0.0	 0.0	 0.0	 0.0	 0.0	 0.0	 0.0	 0.0	 0.0	 0.0	 0.0; % NG
	10079	 388.475	 0.0	 5101.2	 -5101.2	 1.01319	 2031.0	 1	 597	 179.95	 0.0	 0.0	 0.0	 0.0	 0.0	 0.0	 0.0	 0.0	 0.0	 0.0	 0.0; % COW
	10080	 46.9	 0.0	 70.8	 -70.8	 1.02855	 119.0	 1	 90	 3.8	 0.0	 0.0	 0.0	 0.0	 0.0	 0.0	 0.0	 0.0	 0.0	 0.0	 0.0; % NG
	10090	 383.1	 0.0	 314.0	 -314.0	 1.04139	 806.0	 1	 561	 205.2	 0.0	 0.0	 0.0	 0.0	 0.0	 0.0	 0.0	 0.0	 0.0	 0.0	 0.0; % NG
	10094	 491.1	 0.0	 108037.2	 -108037.2	 1.03526	 970.0	 1	 705	 277.2	 0.0	 0.0	 0.0	 0.0	 0.0	 0.0	 0.0	 0.0	 0.0	 0.0	 0.0; % COW
	10095	 115.45	 0.0	 3118.8	 -3118.8	 1.02969	 1439.0	 1	 170	 60.9	 0.0	 0.0	 0.0	 0.0	 0.0	 0.0	 0.0	 0.0	 0.0	 0.0	 0.0; % COW
	10100	 1044.3	 0.0	 968.0	 -968.0	 1.04073	 2202.0	 1	 1455	 633.6	 0.0	 0.0	 0.0	 0.0	 0.0	 0.0	 0.0	 0.0	 0.0	 0.0	 0.0; % COW
	10104	 522.5	 0.0	 413.0	 -413.0	 1.04409	 939.0	 1	 775	 270.0	 0.0	 0.0	 0.0	 0.0	 0.0	 0.0	 0.0	 0.0	 0.0	 0.0	 0.0; % COW
	10115	 233.2	 0.0	 215.0	 -215.0	 1.00234	 492.0	 1	 326	 140.4	 0.0	 0.0	 0.0	 0.0	 0.0	 0.0	 0.0	 0.0	 0.0	 0.0	 0.0; % COW
	10116	 564.2	 0.0	 494.0	 -494.0	 1.00234	 492.0	 1	 988	 140.4	 0.0	 0.0	 0.0	 0.0	 0.0	 0.0	 0.0	 0.0	 0.0	 0.0	 0.0; % NG
	10118	 1481.0	 0.0	 1211.0	 -1211.0	 1.04097	 1876.0	 1	 2422	 540.0	 0.0	 0.0	 0.0	 0.0	 0.0	 0.0	 0.0	 0.0	 0.0	 0.0	 0.0; % COW
	10126	 516.2	 0.0	 410.0	 -410.0	 1.00802	 786.0	 1	 820	 212.4	 0.0	 0.0	 0.0	 0.0	 0.0	 0.0	 0.0	 0.0	 0.0	 0.0	 0.0; % COW
	10129	 1298.0	 0.0	 1265.0	 -1265.0	 1.04538	 2974.0	 1	 1768	 828.0	 0.0	 0.0	 0.0	 0.0	 0.0	 0.0	 0.0	 0.0	 0.0	 0.0	 0.0; % NUC
	10132	 573.3	 0.0	 446.0	 -446.0	 1.02908	 1014.0	 1	 855	 291.6	 0.0	 0.0	 0.0	 0.0	 0.0	 0.0	 0.0	 0.0	 0.0	 0.0	 0.0; % COW
	10139	 601.0	 0.0	 495.0	 -495.0	 1.03742	 1143.0	 1	 878	 324.0	 0.0	 0.0	 0.0	 0.0	 0.0	 0.0	 0.0	 0.0	 0.0	 0.0	 0.0; % COW
	10140	 748.0	 0.0	 743.0	 -743.0	 1.03856	 1705.0	 1	 1010	 486.0	 0.0	 0.0	 0.0	 0.0	 0.0	 0.0	 0.0	 0.0	 0.0	 0.0	 0.0; % COW
	10141	 1021.0	 0.0	 935.0	 -935.0	 1.01264	 2125.0	 1	 1430	 612.0	 0.0	 0.0	 0.0	 0.0	 0.0	 0.0	 0.0	 0.0	 0.0	 0.0	 0.0; % COW
	10146	 119.8	 0.0	 136.8	 -136.8	 1.04296	 224.0	 1	 182	 57.6	 0.0	 0.0	 0.0	 0.0	 0.0	 0.0	 0.0	 0.0	 0.0	 0.0	 0.0; % NG
	10150	 173.9	 0.0	 154.0	 -154.0	 1.04015	 427.0	 1	 247	 100.8	 0.0	 0.0	 0.0	 0.0	 0.0	 0.0	 0.0	 0.0	 0.0	 0.0	 0.0; % NG
	10171	 186.65	 0.0	 102535.2	 -102535.2	 1.02955	 715.0	 1	 331	 42.3	 0.0	 0.0	 0.0	 0.0	 0.0	 0.0	 0.0	 0.0	 0.0	 0.0	 0.0; % COW
	10176	 152.75	 0.0	 391.2	 -391.2	 1.02979	 346.0	 1	 210	 95.5	 0.0	 0.0	 0.0	 0.0	 0.0	 0.0	 0.0	 0.0	 0.0	 0.0	 0.0; % NG
	10177	 353.75	 0.0	 391.2	 -391.2	 1.02979	 346.0	 1	 612	 95.5	 0.0	 0.0	 0.0	 0.0	 0.0	 0.0	 0.0	 0.0	 0.0	 0.0	 0.0; % NG
	10186	 352.675	 0.0	 268.0	 -268.0	 1.08932	 618.0	 1	 534	 171.35	 0.0	 0.0	 0.0	 0.0	 0.0	 0.0	 0.0	 0.0	 0.0	 0.0	 0.0; % COW
	10187	 306.175	 0.0	 268.0	 -268.0	 1.0894	 618.0	 1	 441	 171.35	 0.0	 0.0	 0.0	 0.0	 0.0	 0.0	 0.0	 0.0	 0.0	 0.0	 0.0; % COW
	10188	 440.45	 0.0	 354.0	 -354.0	 1.04594	 618.0	 1	 707	 173.9	 0.0	 0.0	 0.0	 0.0	 0.0	 0.0	 0.0	 0.0	 0.0	 0.0	 0.0; % COW
	10189	 279.25	 0.0	 272.0	 -272.0	 1.04556	 620.0	 1	 417	 141.5	 0.0	 0.0	 0.0	 0.0	 0.0	 0.0	 0.0	 0.0	 0.0	 0.0	 0.0; % COW
	10190	 308.875	 0.0	 301.0	 -301.0	 1.04288	 683.0	 1	 432	 185.75	 0.0	 0.0	 0.0	 0.0	 0.0	 0.0	 0.0	 0.0	 0.0	 0.0	 0.0; % COW
	10191	 571.7	 0.0	 479.0	 -479.0	 1.04288	 682.0	 1	 958	 185.4	 0.0	 0.0	 0.0	 0.0	 0.0	 0.0	 0.0	 0.0	 0.0	 0.0	 0.0; % COW
	10192	 245.9	 0.0	 218.0	 -218.0	 1.04073	 281.0	 1	 436	 55.8	 0.0	 0.0	 0.0	 0.0	 0.0	 0.0	 0.0	 0.0	 0.0	 0.0	 0.0; % COW
	10194	 91.2	 0.0	 106.8	 -106.8	 1.03584	 184.0	 1	 150	 32.4	 0.0	 0.0	 0.0	 0.0	 0.0	 0.0	 0.0	 0.0	 0.0	 0.0	 0.0; % NG
	10196	 147.5	 0.0	 121.0	 -121.0	 1.04091	 215.0	 1	 241	 54.0	 0.0	 0.0	 0.0	 0.0	 0.0	 0.0	 0.0	 0.0	 0.0	 0.0	 0.0; % NG
	10223	 32.5	 0.0	 194.4	 -194.4	 1.04073	 189.0	 1	 65	 0.0	 0.0	 0.0	 0.0	 0.0	 0.0	 0.0	 0.0	 0.0	 0.0	 0.0	 0.0; % NG
	10225	 203.95	 0.0	 185.0	 -185.0	 1.06248	 333.0	 1	 369	 38.9	 0.0	 0.0	 0.0	 0.0	 0.0	 0.0	 0.0	 0.0	 0.0	 0.0	 0.0; % NG
	10226	 159.65	 0.0	 151.0	 -151.0	 1.06441	 198.0	 1	 302	 17.3	 0.0	 0.0	 0.0	 0.0	 0.0	 0.0	 0.0	 0.0	 0.0	 0.0	 0.0; % NG
	10227	 36.375	 0.0	 73.2	 -73.2	 1.10423	 191.0	 1	 67	 5.75	 0.0	 0.0	 0.0	 0.0	 0.0	 0.0	 0.0	 0.0	 0.0	 0.0	 0.0; % PEL
	10228	 110.675	 0.0	 146.4	 -146.4	 1.06247	 135.0	 1	 212	 9.35	 0.0	 0.0	 0.0	 0.0	 0.0	 0.0	 0.0	 0.0	 0.0	 0.0	 0.0; % PEL
	10229	 67.4	 0.0	 58.0	 -58.0	 1.06902	 85.0	 1	 115	 19.8	 0.0	 0.0	 0.0	 0.0	 0.0	 0.0	 0.0	 0.0	 0.0	 0.0	 0.0; % NG
	10230	 7.5	 0.0	 40.8	 -40.8	 1.07323	 132.0	 1	 15	 0.0	 0.0	 0.0	 0.0	 0.0	 0.0	 0.0	 0.0	 0.0	 0.0	 0.0	 0.0; % NG
	10232	 102.3	 0.0	 118.8	 -118.8	 1.01987	 64.0	 1	 199	 5.6	 0.0	 0.0	 0.0	 0.0	 0.0	 0.0	 0.0	 0.0	 0.0	 0.0	 0.0; % NG
	10233	 87.35	 0.0	 76.0	 -76.0	 1.04665	 79.0	 1	 152	 22.7	 0.0	 0.0	 0.0	 0.0	 0.0	 0.0	 0.0	 0.0	 0.0	 0.0	 0.0; % PEL
	10234	 121.9	 0.0	 174.0	 -174.0	 1.09129	 115.0	 1	 242	 1.8	 0.0	 0.0	 0.0	 0.0	 0.0	 0.0	 0.0	 0.0	 0.0	 0.0	 0.0; % NG
	10235	 65.2	 0.0	 58.0	 -58.0	 1.08091	 83.0	 1	 116	 14.4	 0.0	 0.0	 0.0	 0.0	 0.0	 0.0	 0.0	 0.0	 0.0	 0.0	 0.0; % NG
	10236	 113.875	 0.0	 92.0	 -92.0	 1.07896	 219.0	 1	 168	 59.75	 0.0	 0.0	 0.0	 0.0	 0.0	 0.0	 0.0	 0.0	 0.0	 0.0	 0.0; % NG
	10237	 77.6	 0.0	 118.8	 -118.8	 1.08023	 121.0	 1	 130	 25.2	 0.0	 0.0	 0.0	 0.0	 0.0	 0.0	 0.0	 0.0	 0.0	 0.0	 0.0; % PEL
	10238	 105.975	 0.0	 262.8	 -262.8	 1.00809	 179.0	 1	 181	 30.95	 0.0	 0.0	 0.0	 0.0	 0.0	 0.0	 0.0	 0.0	 0.0	 0.0	 0.0; % NG
	10239	 128.65	 0.0	 113.0	 -113.0	 1.06246	 109.0	 1	 226	 31.3	 0.0	 0.0	 0.0	 0.0	 0.0	 0.0	 0.0	 0.0	 0.0	 0.0	 0.0; % NG
	10240	 42.0	 0.0	 42.0	 -42.0	 1.0666	 128.0	 1	 84	 0.0	 0.0	 0.0	 0.0	 0.0	 0.0	 0.0	 0.0	 0.0	 0.0	 0.0	 0.0; % NG
	10246	 129.05	 0.0	 112.0	 -112.0	 1.03917	 262.0	 1	 185	 73.1	 0.0	 0.0	 0.0	 0.0	 0.0	 0.0	 0.0	 0.0	 0.0	 0.0	 0.0; % NG
	10247	 83.05	 0.0	 79.0	 -79.0	 1.12	 215.0	 1	 115	 51.1	 0.0	 0.0	 0.0	 0.0	 0.0	 0.0	 0.0	 0.0	 0.0	 0.0	 0.0; % NG
	10248	 148.1	 0.0	 118.0	 -118.0	 1.12	 241.0	 1	 235	 61.2	 0.0	 0.0	 0.0	 0.0	 0.0	 0.0	 0.0	 0.0	 0.0	 0.0	 0.0; % NG
	10249	 191.5	 0.0	 160.0	 -160.0	 1.00179	 225.0	 1	 319	 64.0	 0.0	 0.0	 0.0	 0.0	 0.0	 0.0	 0.0	 0.0	 0.0	 0.0	 0.0; % NG
	10250	 637.1	 0.0	 544.0	 -544.0	 1.0404	 650.0	 1	 1087	 187.2	 0.0	 0.0	 0.0	 0.0	 0.0	 0.0	 0.0	 0.0	 0.0	 0.0	 0.0; % COW
	10251	 325.1	 0.0	 286.0	 -286.0	 1.03995	 650.0	 1	 463	 187.2	 0.0	 0.0	 0.0	 0.0	 0.0	 0.0	 0.0	 0.0	 0.0	 0.0	 0.0; % COW
	10252	 410.1	 0.0	 317.0	 -317.0	 1.03994	 650.0	 1	 633	 187.2	 0.0	 0.0	 0.0	 0.0	 0.0	 0.0	 0.0	 0.0	 0.0	 0.0	 0.0; % COW
	10253	 214.475	 0.0	 168.0	 -168.0	 1.01534	 341.0	 1	 335	 93.95	 0.0	 0.0	 0.0	 0.0	 0.0	 0.0	 0.0	 0.0	 0.0	 0.0	 0.0; % NG
	10254	 277.675	 0.0	 262.0	 -262.0	 1.04999	 598.0	 1	 384	 171.35	 0.0	 0.0	 0.0	 0.0	 0.0	 0.0	 0.0	 0.0	 0.0	 0.0	 0.0; % NG
	10255	 146.75	 0.0	 117.0	 -117.0	 1.03994	 210.0	 1	 233	 60.5	 0.0	 0.0	 0.0	 0.0	 0.0	 0.0	 0.0	 0.0	 0.0	 0.0	 0.0; % NG
	10256	 258.2	 0.0	 215.0	 -215.0	 1.11998	 489.0	 1	 376	 140.4	 0.0	 0.0	 0.0	 0.0	 0.0	 0.0	 0.0	 0.0	 0.0	 0.0	 0.0; % COW
	10257	 150.1	 0.0	 115.0	 -115.0	 1.11817	 250.0	 1	 230	 70.2	 0.0	 0.0	 0.0	 0.0	 0.0	 0.0	 0.0	 0.0	 0.0	 0.0	 0.0; % NG
	10258	 173.4	 0.0	 141.0	 -141.0	 1.10518	 230.0	 1	 282	 64.8	 0.0	 0.0	 0.0	 0.0	 0.0	 0.0	 0.0	 0.0	 0.0	 0.0	 0.0; % COW
	10259	 269.925	 0.0	 217.0	 -217.0	 0.98182	 519.0	 1	 398	 141.85	 0.0	 0.0	 0.0	 0.0	 0.0	 0.0	 0.0	 0.0	 0.0	 0.0	 0.0; % NG
	10260	 358.875	 0.0	 326.0	 -326.0	 1.10941	 741.0	 1	 505	 212.75	 0.0	 0.0	 0.0	 0.0	 0.0	 0.0	 0.0	 0.0	 0.0	 0.0	 0.0; % COW
	10261	 510.9	 0.0	 476.0	 -476.0	 0.99592	 1100.0	 1	 732	 289.8	 0.0	 0.0	 0.0	 0.0	 0.0	 0.0	 0.0	 0.0	 0.0	 0.0	 0.0; % COW
	10262	 502.9	 0.0	 476.0	 -476.0	 0.99592	 1100.0	 1	 716	 289.8	 0.0	 0.0	 0.0	 0.0	 0.0	 0.0	 0.0	 0.0	 0.0	 0.0	 0.0; % COW
	10263	 101.425	 0.0	 85.0	 -85.0	 1.09219	 121.0	 1	 169	 33.85	 0.0	 0.0	 0.0	 0.0	 0.0	 0.0	 0.0	 0.0	 0.0	 0.0	 0.0; % COW
	10264	 232.7	 0.0	 215.0	 -215.0	 1.00552	 489.0	 1	 325	 140.4	 0.0	 0.0	 0.0	 0.0	 0.0	 0.0	 0.0	 0.0	 0.0	 0.0	 0.0; % NG
	10265	 238.7	 0.0	 215.0	 -215.0	 1.10573	 496.0	 1	 337	 140.4	 0.0	 0.0	 0.0	 0.0	 0.0	 0.0	 0.0	 0.0	 0.0	 0.0	 0.0; % NG
	10266	 61.4	 0.0	 61.0	 -61.0	 1.04403	 72.0	 1	 121	 1.8	 0.0	 0.0	 0.0	 0.0	 0.0	 0.0	 0.0	 0.0	 0.0	 0.0	 0.0; % PEL
	10267	 47.075	 0.0	 46.0	 -46.0	 1.08131	 120.0	 1	 92	 2.15	 0.0	 0.0	 0.0	 0.0	 0.0	 0.0	 0.0	 0.0	 0.0	 0.0	 0.0; % NG
	10268	 71.225	 0.0	 66.0	 -66.0	 1.06395	 37.0	 1	 132	 10.45	 0.0	 0.0	 0.0	 0.0	 0.0	 0.0	 0.0	 0.0	 0.0	 0.0	 0.0; % COW
	10269	 134.6	 0.0	 146.0	 -146.0	 1.07428	 338.0	 1	 235	 34.2	 0.0	 0.0	 0.0	 0.0	 0.0	 0.0	 0.0	 0.0	 0.0	 0.0	 0.0; % NG
	10270	 52.5	 0.0	 53.0	 -53.0	 1.05973	 40.0	 1	 105	 0.0	 0.0	 0.0	 0.0	 0.0	 0.0	 0.0	 0.0	 0.0	 0.0	 0.0	 0.0; % NG
	10271	 202.55	 0.0	 164.0	 -164.0	 1.06494	 286.0	 1	 327	 78.1	 0.0	 0.0	 0.0	 0.0	 0.0	 0.0	 0.0	 0.0	 0.0	 0.0	 0.0; % NG
	10272	 82.625	 0.0	 77.0	 -77.0	 1.072	 116.0	 1	 153	 12.25	 0.0	 0.0	 0.0	 0.0	 0.0	 0.0	 0.0	 0.0	 0.0	 0.0	 0.0; % PEL
	10273	 294.9	 0.0	 254.0	 -254.0	 1.02431	 321.0	 1	 507	 82.8	 0.0	 0.0	 0.0	 0.0	 0.0	 0.0	 0.0	 0.0	 0.0	 0.0	 0.0; % NG
	10274	 100.3	 0.0	 113.0	 -113.0	 1.06504	 317.0	 1	 170	 30.6	 0.0	 0.0	 0.0	 0.0	 0.0	 0.0	 0.0	 0.0	 0.0	 0.0	 0.0; % NG
	10275	 53.9	 0.0	 55.0	 -55.0	 1.06182	 125.0	 1	 97	 10.8	 0.0	 0.0	 0.0	 0.0	 0.0	 0.0	 0.0	 0.0	 0.0	 0.0	 0.0; % NG
	10276	 120.325	 0.0	 94.0	 -94.0	 1.06034	 189.0	 1	 187	 53.65	 0.0	 0.0	 0.0	 0.0	 0.0	 0.0	 0.0	 0.0	 0.0	 0.0	 0.0; % NG
	10277	 181.15	 0.0	 161.0	 -161.0	 1.06264	 225.0	 1	 322	 40.3	 0.0	 0.0	 0.0	 0.0	 0.0	 0.0	 0.0	 0.0	 0.0	 0.0	 0.0; % COW
	10278	 215.4	 0.0	 183.0	 -183.0	 1.11356	 233.0	 1	 366	 64.8	 0.0	 0.0	 0.0	 0.0	 0.0	 0.0	 0.0	 0.0	 0.0	 0.0	 0.0; % COW
	10279	 136.9	 0.0	 105.0	 -105.0	 1.11356	 233.0	 1	 209	 64.8	 0.0	 0.0	 0.0	 0.0	 0.0	 0.0	 0.0	 0.0	 0.0	 0.0	 0.0; % NG
	10281	 19.725	 0.0	 30.0	 -30.0	 1.07868	 20.0	 1	 38	 1.45	 0.0	 0.0	 0.0	 0.0	 0.0	 0.0	 0.0	 0.0	 0.0	 0.0	 0.0; % NG
	10282	 176.575	 0.0	 162.0	 -162.0	 1.06767	 357.0	 1	 324	 29.15	 0.0	 0.0	 0.0	 0.0	 0.0	 0.0	 0.0	 0.0	 0.0	 0.0	 0.0; % COW
	10284	 574.575	 0.0	 470.0	 -470.0	 1.12	 919.0	 1	 940	 209.15	 0.0	 0.0	 0.0	 0.0	 0.0	 0.0	 0.0	 0.0	 0.0	 0.0	 0.0; % COW
	10285	 70.0	 0.0	 78.0	 -78.0	 1.0574	 132.0	 1	 140	 0.0	 0.0	 0.0	 0.0	 0.0	 0.0	 0.0	 0.0	 0.0	 0.0	 0.0	 0.0; % NG
	10288	 54.225	 0.0	 49.0	 -49.0	 1.03369	 63.0	 1	 98	 10.45	 0.0	 0.0	 0.0	 0.0	 0.0	 0.0	 0.0	 0.0	 0.0	 0.0	 0.0; % NG
	10289	 80.675	 0.0	 81.0	 -81.0	 1.05256	 41.0	 1	 161	 0.35	 0.0	 0.0	 0.0	 0.0	 0.0	 0.0	 0.0	 0.0	 0.0	 0.0	 0.0; % PEL
	10290	 70.525	 0.0	 64.0	 -64.0	 1.06119	 49.0	 1	 127	 14.05	 0.0	 0.0	 0.0	 0.0	 0.0	 0.0	 0.0	 0.0	 0.0	 0.0	 0.0; % NG
	10291	 95.45	 0.0	 94.0	 -94.0	 1.08362	 71.0	 1	 188	 2.9	 0.0	 0.0	 0.0	 0.0	 0.0	 0.0	 0.0	 0.0	 0.0	 0.0	 0.0; % NG
	10292	 263.625	 0.0	 239.0	 -239.0	 1.08678	 638.0	 1	 371	 156.25	 0.0	 0.0	 0.0	 0.0	 0.0	 0.0	 0.0	 0.0	 0.0	 0.0	 0.0; % COW
	10293	 53.35	 0.0	 49.0	 -49.0	 1.07356	 46.0	 1	 97	 9.7	 0.0	 0.0	 0.0	 0.0	 0.0	 0.0	 0.0	 0.0	 0.0	 0.0	 0.0; % NG
	10294	 29.475	 0.0	 28.0	 -28.0	 1.08819	 74.0	 1	 55	 3.95	 0.0	 0.0	 0.0	 0.0	 0.0	 0.0	 0.0	 0.0	 0.0	 0.0	 0.0; % COW
	10295	 156.475	 0.0	 286.8	 -286.8	 0.99474	 299.0	 1	 237	 75.95	 0.0	 0.0	 0.0	 0.0	 0.0	 0.0	 0.0	 0.0	 0.0	 0.0	 0.0; % COW
	10296	 353.825	 0.0	 305.0	 -305.0	 1.08634	 461.0	 1	 609	 98.65	 0.0	 0.0	 0.0	 0.0	 0.0	 0.0	 0.0	 0.0	 0.0	 0.0	 0.0; % COW
	24	 149.5	 0.0	 122.0	 -122.0	 1.07767	 235.3	 1	 244	 55.0	 0.0	 0.0	 0.0	 0.0	 0.0	 0.0	 0.0	 0.0	 0.0	 0.0	 0.0; % NG
	25	 155.75	 0.0	 122.0	 -122.0	 1.0776	 235.3	 1	 244	 67.5	 0.0	 0.0	 0.0	 0.0	 0.0	 0.0	 0.0	 0.0	 0.0	 0.0	 0.0; % NG
	37	 244.0	 0.5	 185.0	 -184.0	 1.11	 426.0	 1	 368	 120.0	 0.0	 0.0	 0.0	 0.0	 0.0	 0.0	 0.0	 0.0	 0.0	 0.0	 0.0; % NG
	37	 203.0	 21.0	 185.0	 -143.0	 1.11	 426.0	 1	 286	 120.0	 0.0	 0.0	 0.0	 0.0	 0.0	 0.0	 0.0	 0.0	 0.0	 0.0	 0.0; % NG
	38	 404.5	 0.0	 345.0	 -345.0	 1.11	 426.0	 1	 689	 120.0	 0.0	 0.0	 0.0	 0.0	 0.0	 0.0	 0.0	 0.0	 0.0	 0.0	 0.0; % NG
	38	 281.5	 0.0	 222.0	 -222.0	 1.11	 426.0	 1	 443	 120.0	 0.0	 0.0	 0.0	 0.0	 0.0	 0.0	 0.0	 0.0	 0.0	 0.0	 0.0; % NG
	39	 231.5	 6.5	 185.0	 -172.0	 1.11	 426.0	 1	 343	 120.0	 0.0	 0.0	 0.0	 0.0	 0.0	 0.0	 0.0	 0.0	 0.0	 0.0	 0.0; % NG
	40	 196.5	 24.0	 185.0	 -137.0	 1.04756	 426.0	 1	 273	 120.0	 0.0	 0.0	 0.0	 0.0	 0.0	 0.0	 0.0	 0.0	 0.0	 0.0	 0.0; % NG
	40	 234.0	 5.5	 185.0	 -174.0	 1.04756	 426.0	 1	 348	 120.0	 0.0	 0.0	 0.0	 0.0	 0.0	 0.0	 0.0	 0.0	 0.0	 0.0	 0.0; % NG
	40	 235.5	 4.5	 185.0	 -176.0	 1.04756	 426.0	 1	 351	 120.0	 0.0	 0.0	 0.0	 0.0	 0.0	 0.0	 0.0	 0.0	 0.0	 0.0	 0.0; % NG
	41	 250.0	 0.0	 190.0	 -190.0	 1.04755	 426.0	 1	 380	 120.0	 0.0	 0.0	 0.0	 0.0	 0.0	 0.0	 0.0	 0.0	 0.0	 0.0	 0.0; % NG
	41	 231.0	 7.0	 185.0	 -171.0	 1.04755	 426.0	 1	 342	 120.0	 0.0	 0.0	 0.0	 0.0	 0.0	 0.0	 0.0	 0.0	 0.0	 0.0	 0.0; % NG
	41	 322.5	 0.0	 263.0	 -263.0	 1.04755	 426.0	 1	 525	 120.0	 0.0	 0.0	 0.0	 0.0	 0.0	 0.0	 0.0	 0.0	 0.0	 0.0	 0.0; % NG
	57	 108.0	 13.5	 108.0	 -81.0	 1.10991	 235.0	 1	 161	 55.0	 0.0	 0.0	 0.0	 0.0	 0.0	 0.0	 0.0	 0.0	 0.0	 0.0	 0.0; % NG
	57	 209.75	 0.0	 179.0	 -179.0	 1.10991	 235.0	 1	 357	 62.5	 0.0	 0.0	 0.0	 0.0	 0.0	 0.0	 0.0	 0.0	 0.0	 0.0	 0.0; % NG
	58	 119.25	 1.9	 113.0	 -109.2	 1.1097	 235.0	 1	 176	 62.5	 0.0	 0.0	 0.0	 0.0	 0.0	 0.0	 0.0	 0.0	 0.0	 0.0	 0.0; % NG
	58	 198.5	 0.0	 169.0	 -169.0	 1.0	 235.0	 0	 337	 60.0	 0.0	 0.0	 0.0	 0.0	 0.0	 0.0	 0.0	 0.0	 0.0	 0.0	 0.0; % NG
	58	 173.5	 0.0	 146.0	 -146.0	 1.1097	 235.0	 1	 292	 55.0	 0.0	 0.0	 0.0	 0.0	 0.0	 0.0	 0.0	 0.0	 0.0	 0.0	 0.0; % COW
	59	 153.0	 0.0	 126.0	 -126.0	 1.11	 235.0	 1	 251	 55.0	 0.0	 0.0	 0.0	 0.0	 0.0	 0.0	 0.0	 0.0	 0.0	 0.0	 0.0; % NG
	60	 297.25	 17.0	 268.0	 -234.0	 1.05	 588.0	 1	 467	 127.5	 0.0	 0.0	 0.0	 0.0	 0.0	 0.0	 0.0	 0.0	 0.0	 0.0	 0.0; % NG
	61	 228.5	 57.0	 280.0	 -166.0	 1.04992	 588.0	 1	 332	 125.0	 0.0	 0.0	 0.0	 0.0	 0.0	 0.0	 0.0	 0.0	 0.0	 0.0	 0.0; % COW
	70	 141.75	 0.0	 110.0	 -110.0	 1.10739	 235.0	 1	 219	 64.5	 0.0	 0.0	 0.0	 0.0	 0.0	 0.0	 0.0	 0.0	 0.0	 0.0	 0.0; % NG
	71	 201.75	 0.0	 170.0	 -170.0	 1.10739	 235.0	 1	 339	 64.5	 0.0	 0.0	 0.0	 0.0	 0.0	 0.0	 0.0	 0.0	 0.0	 0.0	 0.0; % NG
	71	 202.75	 0.0	 171.0	 -171.0	 1.0	 235.0	 0	 341	 64.5	 0.0	 0.0	 0.0	 0.0	 0.0	 0.0	 0.0	 0.0	 0.0	 0.0	 0.0; % NG
	72	 125.25	 6.0	 105.0	 -93.0	 1.0	 235.0	 0	 186	 64.5	 0.0	 0.0	 0.0	 0.0	 0.0	 0.0	 0.0	 0.0	 0.0	 0.0	 0.0; % NG
	72	 150.25	 0.0	 118.0	 -118.0	 1.04287	 235.0	 1	 236	 64.5	 0.0	 0.0	 0.0	 0.0	 0.0	 0.0	 0.0	 0.0	 0.0	 0.0	 0.0; % NG
	73	 132.75	 0.0	 101.0	 -101.0	 1.0429	 235.0	 1	 201	 64.5	 0.0	 0.0	 0.0	 0.0	 0.0	 0.0	 0.0	 0.0	 0.0	 0.0	 0.0; % NG
	73	 134.25	 1.5	 105.0	 -102.0	 1.0429	 235.0	 1	 204	 64.5	 0.0	 0.0	 0.0	 0.0	 0.0	 0.0	 0.0	 0.0	 0.0	 0.0	 0.0; % NG
	74	 139.0	 0.0	 139.0	 -139.0	 1.1043	 120.0	 1	 278	 0.0	 0.0	 0.0	 0.0	 0.0	 0.0	 0.0	 0.0	 0.0	 0.0	 0.0	 0.0; % NG
	94	 158.75	 0.0	 128.0	 -128.0	 1.10247	 270.6	 1	 255	 62.5	 0.0	 0.0	 0.0	 0.0	 0.0	 0.0	 0.0	 0.0	 0.0	 0.0	 0.0; % NG
	94	 212.5	 0.0	 178.0	 -178.0	 1.10247	 270.6	 1	 355	 70.0	 0.0	 0.0	 0.0	 0.0	 0.0	 0.0	 0.0	 0.0	 0.0	 0.0	 0.0; % NG
	95	 136.0	 4.5	 113.0	 -104.0	 1.10442	 270.6	 1	 207	 65.0	 0.0	 0.0	 0.0	 0.0	 0.0	 0.0	 0.0	 0.0	 0.0	 0.0	 0.0; % NG
	95	 136.25	 4.0	 113.0	 -105.0	 1.10442	 270.6	 1	 210	 62.5	 0.0	 0.0	 0.0	 0.0	 0.0	 0.0	 0.0	 0.0	 0.0	 0.0	 0.0; % NG
	95	 249.5	 0.0	 217.0	 -217.0	 1.10442	 270.6	 1	 434	 65.0	 0.0	 0.0	 0.0	 0.0	 0.0	 0.0	 0.0	 0.0	 0.0	 0.0	 0.0; % COW
	98	 315.0	 0.0	 260.0	 -260.0	 1.05	 426.0	 1	 520	 110.0	 0.0	 0.0	 0.0	 0.0	 0.0	 0.0	 0.0	 0.0	 0.0	 0.0	 0.0; % NG
	98	 274.5	 0.0	 220.0	 -220.0	 1.05	 435.3	 1	 439	 110.0	 0.0	 0.0	 0.0	 0.0	 0.0	 0.0	 0.0	 0.0	 0.0	 0.0	 0.0; % NG
	115	 31.5	 0.0	 32.0	 -32.0	 1.09646	 12.0	 1	 63	 0.0	 0.0	 0.0	 0.0	 0.0	 0.0	 0.0	 0.0	 0.0	 0.0	 0.0	 0.0; % NG
	115	 18.0	 0.0	 18.0	 -18.0	 1.09646	 6.0	 1	 36	 0.0	 0.0	 0.0	 0.0	 0.0	 0.0	 0.0	 0.0	 0.0	 0.0	 0.0	 0.0; % PEL
	121	 273.0	 0.0	 243.0	 -243.0	 1.0	 270.6	 0	 486	 60.0	 0.0	 0.0	 0.0	 0.0	 0.0	 0.0	 0.0	 0.0	 0.0	 0.0	 0.0; % NG
	122	 151.5	 0.0	 122.0	 -122.0	 1.10922	 270.6	 1	 243	 60.0	 0.0	 0.0	 0.0	 0.0	 0.0	 0.0	 0.0	 0.0	 0.0	 0.0	 0.0; % NG
	123	 100.0	 0.0	 83.0	 -83.0	 1.10624	 150.0	 1	 165	 35.0	 0.0	 0.0	 0.0	 0.0	 0.0	 0.0	 0.0	 0.0	 0.0	 0.0	 0.0; % NG
	124	 93.0	 0.0	 76.0	 -76.0	 1.10639	 150.0	 1	 151	 35.0	 0.0	 0.0	 0.0	 0.0	 0.0	 0.0	 0.0	 0.0	 0.0	 0.0	 0.0; % NG
	134	 179.5	 0.0	 162.0	 -162.0	 1.0	 150.0	 0	 324	 35.0	 0.0	 0.0	 0.0	 0.0	 0.0	 0.0	 0.0	 0.0	 0.0	 0.0	 0.0; % NG
	135	 106.5	 0.0	 89.0	 -89.0	 1.09923	 150.0	 1	 178	 35.0	 0.0	 0.0	 0.0	 0.0	 0.0	 0.0	 0.0	 0.0	 0.0	 0.0	 0.0; % NG
	136	 200.0	 0.0	 180.0	 -180.0	 1.07793	 117.5	 1	 360	 40.0	 0.0	 0.0	 0.0	 0.0	 0.0	 0.0	 0.0	 0.0	 0.0	 0.0	 0.0; % COW
	144	 140.25	 0.5	 108.0	 -107.0	 1.10999	 270.6	 1	 213	 67.5	 0.0	 0.0	 0.0	 0.0	 0.0	 0.0	 0.0	 0.0	 0.0	 0.0	 0.0; % NG
	145	 153.75	 0.0	 120.0	 -120.0	 1.11	 270.6	 1	 240	 67.5	 0.0	 0.0	 0.0	 0.0	 0.0	 0.0	 0.0	 0.0	 0.0	 0.0	 0.0; % NG
	145	 122.25	 12.0	 113.0	 -89.0	 1.11	 270.6	 1	 177	 67.5	 0.0	 0.0	 0.0	 0.0	 0.0	 0.0	 0.0	 0.0	 0.0	 0.0	 0.0; % NG
	146	 226.75	 0.0	 193.0	 -193.0	 1.04293	 270.6	 1	 386	 67.5	 0.0	 0.0	 0.0	 0.0	 0.0	 0.0	 0.0	 0.0	 0.0	 0.0	 0.0; % NG
	146	 173.75	 0.0	 140.0	 -140.0	 1.04293	 270.6	 1	 280	 67.5	 0.0	 0.0	 0.0	 0.0	 0.0	 0.0	 0.0	 0.0	 0.0	 0.0	 0.0; % NG
	152	 327.5	 0.0	 395.0	 -395.0	 1.0	 150.0	 0	 790	 -135.0	 0.0	 0.0	 0.0	 0.0	 0.0	 0.0	 0.0	 0.0	 0.0	 0.0	 0.0; % COW
	152	 3.0	 0.0	 71.0	 -71.0	 1.0	 150.0	 0	 141	 -135.0	 0.0	 0.0	 0.0	 0.0	 0.0	 0.0	 0.0	 0.0	 0.0	 0.0	 0.0; % COW
	153	 102.0	 0.0	 170.0	 -170.0	 1.0	 150.0	 0	 339	 -135.0	 0.0	 0.0	 0.0	 0.0	 0.0	 0.0	 0.0	 0.0	 0.0	 0.0	 0.0; % COW
	153	 12.5	 0.0	 80.0	 -80.0	 1.0	 150.0	 0	 160	 -135.0	 0.0	 0.0	 0.0	 0.0	 0.0	 0.0	 0.0	 0.0	 0.0	 0.0	 0.0; % NG
	154	 131.0	 0.0	 108.0	 -108.0	 1.0916	 150.0	 1	 215	 47.0	 0.0	 0.0	 0.0	 0.0	 0.0	 0.0	 0.0	 0.0	 0.0	 0.0	 0.0; % NG
	155	 113.0	 0.0	 90.0	 -90.0	 1.0916	 150.0	 1	 179	 47.0	 0.0	 0.0	 0.0	 0.0	 0.0	 0.0	 0.0	 0.0	 0.0	 0.0	 0.0; % NG
	155	 211.0	 0.0	 188.0	 -188.0	 1.0	 150.0	 0	 375	 47.0	 0.0	 0.0	 0.0	 0.0	 0.0	 0.0	 0.0	 0.0	 0.0	 0.0	 0.0; % COW
	169	 108.0	 0.0	 98.0	 -98.0	 1.0	 51.4	 0	 196	 20.0	 0.0	 0.0	 0.0	 0.0	 0.0	 0.0	 0.0	 0.0	 0.0	 0.0	 0.0; % COW
	170	 155.0	 0.0	 135.0	 -135.0	 1.0	 150.0	 0	 270	 40.0	 0.0	 0.0	 0.0	 0.0	 0.0	 0.0	 0.0	 0.0	 0.0	 0.0	 0.0; % NG
	170	 42.75	 0.0	 32.0	 -32.0	 1.0	 51.4	 0	 63	 22.5	 0.0	 0.0	 0.0	 0.0	 0.0	 0.0	 0.0	 0.0	 0.0	 0.0	 0.0; % NG
	172	 108.5	 16.0	 116.0	 -84.0	 1.06808	 252.4	 1	 167	 50.0	 0.0	 0.0	 0.0	 0.0	 0.0	 0.0	 0.0	 0.0	 0.0	 0.0	 0.0; % NG
	172	 212.75	 0.0	 179.0	 -179.0	 1.0	 237.5	 0	 358	 67.5	 0.0	 0.0	 0.0	 0.0	 0.0	 0.0	 0.0	 0.0	 0.0	 0.0	 0.0; % NG
	173	 193.25	 0.0	 160.0	 -160.0	 1.0	 237.5	 0	 319	 67.5	 0.0	 0.0	 0.0	 0.0	 0.0	 0.0	 0.0	 0.0	 0.0	 0.0	 0.0; % COW
	173	 128.0	 0.0	 106.0	 -106.0	 1.0	 252.4	 0	 211	 45.0	 0.0	 0.0	 0.0	 0.0	 0.0	 0.0	 0.0	 0.0	 0.0	 0.0	 0.0; % NG
	174	 138.0	 0.0	 151.2	 -151.2	 1.03111	 252.4	 1	 231	 45.0	 0.0	 0.0	 0.0	 0.0	 0.0	 0.0	 0.0	 0.0	 0.0	 0.0	 0.0; % NG
	175	 252.0	 0.0	 230.0	 -230.0	 1.03109	 252.4	 1	 459	 45.0	 0.0	 0.0	 0.0	 0.0	 0.0	 0.0	 0.0	 0.0	 0.0	 0.0	 0.0; % COW
	175	 227.0	 0.0	 202.0	 -202.0	 1.03109	 252.4	 1	 404	 50.0	 0.0	 0.0	 0.0	 0.0	 0.0	 0.0	 0.0	 0.0	 0.0	 0.0	 0.0; % COW
	180	 101.5	 21.5	 127.0	 -84.0	 1.11	 287.3	 1	 151	 52.0	 0.0	 0.0	 0.0	 0.0	 0.0	 0.0	 0.0	 0.0	 0.0	 0.0	 0.0; % NG
	180	 336.0	 0.0	 310.0	 -310.0	 1.11	 287.3	 1	 620	 52.0	 0.0	 0.0	 0.0	 0.0	 0.0	 0.0	 0.0	 0.0	 0.0	 0.0	 0.0; % COW
	181	 220.0	 0.0	 190.0	 -190.0	 1.11	 238.4	 1	 380	 60.0	 0.0	 0.0	 0.0	 0.0	 0.0	 0.0	 0.0	 0.0	 0.0	 0.0	 0.0; % NG
	181	 96.5	 23.9	 127.0	 -79.2	 1.11	 287.3	 1	 141	 52.0	 0.0	 0.0	 0.0	 0.0	 0.0	 0.0	 0.0	 0.0	 0.0	 0.0	 0.0; % COW
	182	 199.5	 0.0	 176.0	 -176.0	 1.11	 263.9	 1	 352	 47.0	 0.0	 0.0	 0.0	 0.0	 0.0	 0.0	 0.0	 0.0	 0.0	 0.0	 0.0; % NG
	182	 96.0	 22.5	 118.0	 -73.0	 1.11	 263.9	 1	 145	 47.0	 0.0	 0.0	 0.0	 0.0	 0.0	 0.0	 0.0	 0.0	 0.0	 0.0	 0.0; % NG
	183	 138.0	 0.0	 108.0	 -108.0	 1.04854	 238.4	 1	 216	 60.0	 0.0	 0.0	 0.0	 0.0	 0.0	 0.0	 0.0	 0.0	 0.0	 0.0	 0.0; % NG
	183	 126.5	 3.0	 103.0	 -97.0	 1.04854	 238.4	 1	 193	 60.0	 0.0	 0.0	 0.0	 0.0	 0.0	 0.0	 0.0	 0.0	 0.0	 0.0	 0.0; % NG
	191	 146.0	 0.0	 109.0	 -109.0	 1.08579	 233.2	 1	 217	 75.0	 0.0	 0.0	 0.0	 0.0	 0.0	 0.0	 0.0	 0.0	 0.0	 0.0	 0.0; % NG
	192	 197.0	 0.0	 162.0	 -162.0	 1.08551	 233.2	 1	 319	 75.0	 0.0	 0.0	 0.0	 0.0	 0.0	 0.0	 0.0	 0.0	 0.0	 0.0	 0.0; % NG
	192	 204.25	 0.0	 168.0	 -168.0	 1.0	 233.2	 0	 336	 72.5	 0.0	 0.0	 0.0	 0.0	 0.0	 0.0	 0.0	 0.0	 0.0	 0.0	 0.0; % NG
	192	 157.75	 0.0	 122.0	 -122.0	 1.0	 233.2	 0	 243	 72.5	 0.0	 0.0	 0.0	 0.0	 0.0	 0.0	 0.0	 0.0	 0.0	 0.0	 0.0; % NG
	193	 184.5	 0.0	 302.4	 -302.4	 1.03481	 464.0	 1	 265	 104.0	 0.0	 0.0	 0.0	 0.0	 0.0	 0.0	 0.0	 0.0	 0.0	 0.0	 0.0; % COW
	208	 171.5	 0.0	 153.0	 -153.0	 1.06766	 218.3	 1	 305	 38.0	 0.0	 0.0	 0.0	 0.0	 0.0	 0.0	 0.0	 0.0	 0.0	 0.0	 0.0; % NG
	240	 -53.5	 14.0	 90.0	 -62.0	 1.02448	 209.0	 1	 93	 -200.0	 0.0	 0.0	 0.0	 0.0	 0.0	 0.0	 0.0	 0.0	 0.0	 0.0	 0.0; % NG
	240	 -37.5	 13.5	 90.0	 -63.0	 1.02448	 209.0	 1	 125	 -200.0	 0.0	 0.0	 0.0	 0.0	 0.0	 0.0	 0.0	 0.0	 0.0	 0.0	 0.0; % NG
	240	 57.0	 0.0	 157.0	 -157.0	 1.0	 209.0	 0	 314	 -200.0	 0.0	 0.0	 0.0	 0.0	 0.0	 0.0	 0.0	 0.0	 0.0	 0.0	 0.0; % COW
	241	 -65.0	 0.0	 90.0	 -90.0	 1.02448	 209.0	 1	 70	 -200.0	 0.0	 0.0	 0.0	 0.0	 0.0	 0.0	 0.0	 0.0	 0.0	 0.0	 0.0; % NG
	244	 193.125	 0.0	 165.0	 -165.0	 1.11	 177.1	 1	 330	 56.25	 0.0	 0.0	 0.0	 0.0	 0.0	 0.0	 0.0	 0.0	 0.0	 0.0	 0.0; % NG
	254	 46.25	 0.0	 41.0	 -41.0	 1.09551	 78.8	 1	 81	 11.5	 0.0	 0.0	 0.0	 0.0	 0.0	 0.0	 0.0	 0.0	 0.0	 0.0	 0.0; % NG
	254	 50.75	 0.0	 45.0	 -45.0	 1.09551	 68.8	 1	 89	 12.5	 0.0	 0.0	 0.0	 0.0	 0.0	 0.0	 0.0	 0.0	 0.0	 0.0	 0.0; % NG
	254	 35.75	 0.0	 33.6	 -33.6	 1.09551	 68.8	 1	 59	 12.5	 0.0	 0.0	 0.0	 0.0	 0.0	 0.0	 0.0	 0.0	 0.0	 0.0	 0.0; % NG
	254	 30.75	 0.0	 33.6	 -33.6	 1.09551	 27.6	 1	 58	 3.5	 0.0	 0.0	 0.0	 0.0	 0.0	 0.0	 0.0	 0.0	 0.0	 0.0	 0.0; % PEL
	267	 13.625	 0.0	 14.0	 -14.0	 1.05867	 0.7	 1	 27	 0.25	 0.0	 0.0	 0.0	 0.0	 0.0	 0.0	 0.0	 0.0	 0.0	 0.0	 0.0; % NG
	268	 37.125	 0.0	 37.0	 -37.0	 1.07476	 0.7	 1	 74	 0.25	 0.0	 0.0	 0.0	 0.0	 0.0	 0.0	 0.0	 0.0	 0.0	 0.0	 0.0; % PEL
	278	 7.975	 0.0	 7.0	 -7.0	 1.0	 10.3	 0	 13	 2.95	 0.0	 0.0	 0.0	 0.0	 0.0	 0.0	 0.0	 0.0	 0.0	 0.0	 0.0; % COW
	279	 7.975	 0.0	 7.0	 -7.0	 1.0	 10.3	 0	 13	 2.95	 0.0	 0.0	 0.0	 0.0	 0.0	 0.0	 0.0	 0.0	 0.0	 0.0	 0.0; % NG
	295	 26.25	 0.0	 26.0	 -26.0	 1.08251	 5.0	 1	 52	 0.5	 0.0	 0.0	 0.0	 0.0	 0.0	 0.0	 0.0	 0.0	 0.0	 0.0	 0.0; % NG
	295	 57.25	 0.0	 57.0	 -57.0	 1.08251	 5.0	 1	 114	 0.5	 0.0	 0.0	 0.0	 0.0	 0.0	 0.0	 0.0	 0.0	 0.0	 0.0	 0.0; % NG
	295	 31.25	 0.0	 31.0	 -31.0	 1.08251	 5.0	 1	 62	 0.5	 0.0	 0.0	 0.0	 0.0	 0.0	 0.0	 0.0	 0.0	 0.0	 0.0	 0.0; % NG
	295	 74.25	 0.0	 74.0	 -74.0	 1.08251	 5.0	 1	 148	 0.5	 0.0	 0.0	 0.0	 0.0	 0.0	 0.0	 0.0	 0.0	 0.0	 0.0	 0.0; % COW
	310	 239.5	 0.0	 304.8	 -304.8	 0.99995	 426.0	 1	 359	 120.0	 0.0	 0.0	 0.0	 0.0	 0.0	 0.0	 0.0	 0.0	 0.0	 0.0	 0.0; % NG
	316	 5.25	 0.0	 5.0	 -5.0	 1.0	 4.0	 0	 10	 0.5	 0.0	 0.0	 0.0	 0.0	 0.0	 0.0	 0.0	 0.0	 0.0	 0.0	 0.0; % NG
	316	 8.25	 0.0	 8.0	 -8.0	 1.0	 4.0	 0	 16	 0.5	 0.0	 0.0	 0.0	 0.0	 0.0	 0.0	 0.0	 0.0	 0.0	 0.0	 0.0; % NG
	376	 52.35	 0.0	 51.0	 -51.0	 1.09167	 8.4	 1	 102	 2.7	 0.0	 0.0	 0.0	 0.0	 0.0	 0.0	 0.0	 0.0	 0.0	 0.0	 0.0; % PEL
	379	 12.575	 0.0	 13.0	 -13.0	 1.11164	 0.9	 1	 25	 0.15	 0.0	 0.0	 0.0	 0.0	 0.0	 0.0	 0.0	 0.0	 0.0	 0.0	 0.0; % PEL
	379	 42.075	 0.0	 42.0	 -42.0	 1.11164	 0.9	 1	 84	 0.15	 0.0	 0.0	 0.0	 0.0	 0.0	 0.0	 0.0	 0.0	 0.0	 0.0	 0.0; % PEL
	379	 24.575	 0.0	 25.0	 -25.0	 1.11164	 0.9	 1	 49	 0.15	 0.0	 0.0	 0.0	 0.0	 0.0	 0.0	 0.0	 0.0	 0.0	 0.0	 0.0; % NG
	383	 26.25	 0.0	 24.0	 -24.0	 1.11072	 31.3	 1	 47	 5.5	 0.0	 0.0	 0.0	 0.0	 0.0	 0.0	 0.0	 0.0	 0.0	 0.0	 0.0; % NG
...
];

%% generator cost data
%	2	startup	shutdown	n	c(n-1)	...	c0
mpc.gencost = [
	2	 0.0	 0.0	 3	   0.000000	 198.860000	   0.000000; % NG
	2	 0.0	 0.0	 3	   0.000000	 240.260000	   0.000000; % COW
	2	 0.0	 0.0	 3	   0.000000	 240.260000	   0.000000; % NG
	2	 0.0	 0.0	 3	   0.000000	 240.260000	   0.000000; % NG
	2	 0.0	 0.0	 3	   0.000000	 240.260000	   0.000000; % COW
	2	 0.0	 0.0	 3	   0.000000	 240.260000	   0.000000; % COW
	2	 0.0	 0.0	 3	   0.000000	 240.260000	   0.000000; % COW
	2	 0.0	 0.0	 3	   0.000000	 240.260000	   0.000000; % COW
	2	 0.0	 0.0	 3	   0.000000	 240.260000	   0.000000; % COW
	2	 0.0	 0.0	 3	   0.000000	 240.260000	   0.000000; % NG
	2	 0.0	 0.0	 3	   0.000000	 240.260000	   0.000000; % COW
	2	 0.0	 0.0	 3	   0.000000	 240.260000	   0.000000; % COW
	2	 0.0	 0.0	 3	   0.000000	 240.260000	   0.000000; % NUC
	2	 0.0	 0.0	 3	   0.000000	 240.260000	   0.000000; % COW
	2	 0.0	 0.0	 3	   0.000000	 240.260000	   0.000000; % COW
	2	 0.0	 0.0	 3	   0.000000	 240.260000	   0.000000; % COW
	2	 0.0	 0.0	 3	   0.000000	 240.260000	   0.000000; % COW
	2	 0.0	 0.0	 3	   0.000000	 240.260000	   0.000000; % NG
	2	 0.0	 0.0	 3	   0.000000	 240.260000	   0.000000; % NG
	2	 0.0	 0.0	 3	   0.000000	 240.260000	   0.000000; % COW
	2	 0.0	 0.0	 3	   0.000000	 240.260000	   0.000000; % NG
	2	 0.0	 0.0	 3	   0.000000	 240.260000	   0.000000; % NG
	2	 0.0	 0.0	 3	   0.000000	 236.700000	   0.000000; % COW
	2	 0.0	 0.0	 3	   0.000000	 236.700000	   0.000000; % COW
	2	 0.0	 0.0	 3	   0.000000	 236.700000	   0.000000; % COW
	2	 0.0	 0.0	 3	   0.000000	 236.700000	   0.000000; % COW
	2	 0.0	 0.0	 3	   0.000000	 236.700000	   0.000000; % COW
	2	 0.0	 0.0	 3	   0.000000	 236.700000	   0.000000; % COW
	2	 0.0	 0.0	 3	   0.000000	 236.700000	   0.000000; % COW
	2	 0.0	 0.0	 3	   0.000000	 236.700000	   0.000000; % NG
	2	 0.0	 0.0	 3	   0.000000	 236.700000	   0.000000; % NG
	2	 0.0	 0.0	 3	   0.000000	 100.000000	   0.000000; % NG
	2	 0.0	 0.0	 3	   0.000000	 198.860000	   0.000000; % NG
	2	 0.0	 0.0	 3	   0.000000	 198.860000	   0.000000; % NG
	2	 0.0	 0.0	 3	   0.000000	 198.860000	   0.000000; % PEL
	2	 0.0	 0.0	 3	   0.000000	 198.860000	   0.000000; % PEL
	2	 0.0	 0.0	 3	   0.000000	 198.860000	   0.000000; % NG
	2	 0.0	 0.0	 3	   0.000000	 198.860000	   0.000000; % NG
	2	 0.0	 0.0	 3	   0.000000	 198.860000	   0.000000; % NG
	2	 0.0	 0.0	 3	   0.000000	 198.860000	   0.000000; % PEL
	2	 0.0	 0.0	 3	   0.000000	 198.860000	   0.000000; % NG
	2	 0.0	 0.0	 3	   0.000000	 198.860000	   0.000000; % NG
	2	 0.0	 0.0	 3	   0.000000	 198.860000	   0.000000; % NG
	2	 0.0	 0.0	 3	   0.000000	 198.860000	   0.000000; % PEL
	2	 0.0	 0.0	 3	   0.000000	 198.860000	   0.000000; % NG
	2	 0.0	 0.0	 3	   0.000000	 198.860000	   0.000000; % NG
	2	 0.0	 0.0	 3	   0.000000	 198.860000	   0.000000; % NG
	2	 0.0	 0.0	 3	   0.000000	 198.860000	   0.000000; % NG
	2	 0.0	 0.0	 3	   0.000000	 198.860000	   0.000000; % NG
	2	 0.0	 0.0	 3	   0.000000	 198.860000	   0.000000; % NG
	2	 0.0	 0.0	 3	   0.000000	 198.860000	   0.000000; % NG
	2	 0.0	 0.0	 3	   0.000000	 198.860000	   0.000000; % COW
	2	 0.0	 0.0	 3	   0.000000	 198.860000	   0.000000; % COW
	2	 0.0	 0.0	 3	   0.000000	 198.860000	   0.000000; % COW
	2	 0.0	 0.0	 3	   0.000000	 198.860000	   0.000000; % NG
	2	 0.0	 0.0	 3	   0.000000	 198.860000	   0.000000; % NG
	2	 0.0	 0.0	 3	   0.000000	 198.860000	   0.000000; % NG
	2	 0.0	 0.0	 3	   0.000000	 198.860000	   0.000000; % COW
	2	 0.0	 0.0	 3	   0.000000	 198.860000	   0.000000; % NG
	2	 0.0	 0.0	 3	   0.000000	 198.860000	   0.000000; % COW
	2	 0.0	 0.0	 3	   0.000000	 198.860000	   0.000000; % NG
	2	 0.0	 0.0	 3	   0.000000	 198.860000	   0.000000; % COW
	2	 0.0	 0.0	 3	   0.000000	 198.860000	   0.000000; % COW
	2	 0.0	 0.0	 3	   0.000000	 198.860000	   0.000000; % COW
	2	 0.0	 0.0	 3	   0.000000	 198.860000	   0.000000; % COW
	2	 0.0	 0.0	 3	   0.000000	 198.860000	   0.000000; % NG
	2	 0.0	 0.0	 3	   0.000000	 198.860000	   0.000000; % NG
	2	 0.0	 0.0	 3	   0.000000	 198.860000	   0.000000; % PEL
	2	 0.0	 0.0	 3	   0.000000	 198.860000	   0.000000; % NG
	2	 0.0	 0.0	 3	   0.000000	 198.860000	   0.000000; % COW
	2	 0.0	 0.0	 3	   0.000000	 198.860000	   0.000000; % NG
	2	 0.0	 0.0	 3	   0.000000	 198.860000	   0.000000; % NG
	2	 0.0	 0.0	 3	   0.000000	 198.860000	   0.000000; % NG
	2	 0.0	 0.0	 3	   0.000000	 198.860000	   0.000000; % PEL
	2	 0.0	 0.0	 3	   0.000000	 198.860000	   0.000000; % NG
	2	 0.0	 0.0	 3	   0.000000	 198.860000	   0.000000; % NG
	2	 0.0	 0.0	 3	   0.000000	 198.860000	   0.000000; % NG
	2	 0.0	 0.0	 3	   0.000000	 198.860000	   0.000000; % NG
	2	 0.0	 0.0	 3	   0.000000	 198.860000	   0.000000; % COW
	2	 0.0	 0.0	 3	   0.000000	 198.860000	   0.000000; % COW
	2	 0.0	 0.0	 3	   0.000000	 198.860000	   0.000000; % NG
	2	 0.0	 0.0	 3	   0.000000	 198.860000	   0.000000; % NG
	2	 0.0	 0.0	 3	   0.000000	 198.860000	   0.000000; % COW
	2	 0.0	 0.0	 3	   0.000000	 198.860000	   0.000000; % COW
	2	 0.0	 0.0	 3	   0.000000	 198.860000	   0.000000; % NG
	2	 0.0	 0.0	 3	   0.000000	 198.860000	   0.000000; % NG
	2	 0.0	 0.0	 3	   0.000000	 198.860000	   0.000000; % PEL
	2	 0.0	 0.0	 3	   0.000000	 198.860000	   0.000000; % NG
	2	 0.0	 0.0	 3	   0.000000	 198.860000	   0.000000; % NG
	2	 0.0	 0.0	 3	   0.000000	 198.860000	   0.000000; % COW
	2	 0.0	 0.0	 3	   0.000000	 198.860000	   0.000000; % NG
	2	 0.0	 0.0	 3	   0.000000	 198.860000	   0.000000; % COW
	2	 0.0	 0.0	 3	   0.000000	 198.860000	   0.000000; % COW
	2	 0.0	 0.0	 3	   0.000000	 198.860000	   0.000000; % COW
	2	 0.0	 0.0	 3	   0.000000	 158.610000	   0.000000; % NG
	2	 0.0	 0.0	 3	   0.000000	 158.610000	   0.000000; % NG
	2	 0.0	 0.0	 3	   0.000000	 107.030000	   0.000000; % NG
	2	 0.0	 0.0	 3	   0.000000	 107.030000	   0.000000; % NG
	2	 0.0	 0.0	 3	   0.000000	 107.030000	   0.000000; % NG
	2	 0.0	 0.0	 3	   0.000000	 107.030000	   0.000000; % NG
	2	 0.0	 0.0	 3	   0.000000	 107.030000	   0.000000; % NG
	2	 0.0	 0.0	 3	   0.000000	 107.030000	   0.000000; % NG
	2	 0.0	 0.0	 3	   0.000000	 107.030000	   0.000000; % NG
	2	 0.0	 0.0	 3	   0.000000	 107.030000	   0.000000; % NG
	2	 0.0	 0.0	 3	   0.000000	 107.030000	   0.000000; % NG
	2	 0.0	 0.0	 3	   0.000000	 107.030000	   0.000000; % NG
	2	 0.0	 0.0	 3	   0.000000	 107.030000	   0.000000; % NG
	2	 0.0	 0.0	 3	   0.000000	 143.520000	   0.000000; % NG
	2	 0.0	 0.0	 3	   0.000000	 143.520000	   0.000000; % NG
	2	 0.0	 0.0	 3	   0.000000	 143.520000	   0.000000; % NG
	2	 0.0	 0.0	 3	   0.000000	 143.520000	   0.000000; % NG
	2	 0.0	 0.0	 3	   0.000000	 143.520000	   0.000000; % COW
	2	 0.0	 0.0	 3	   0.000000	 143.520000	   0.000000; % NG
	2	 0.0	 0.0	 3	   0.000000	 143.520000	   0.000000; % NG
	2	 0.0	 0.0	 3	   0.000000	 143.520000	   0.000000; % COW
	2	 0.0	 0.0	 3	   0.000000	 148.160000	   0.000000; % NG
	2	 0.0	 0.0	 3	   0.000000	 148.160000	   0.000000; % NG
	2	 0.0	 0.0	 3	   0.000000	 148.160000	   0.000000; % NG
	2	 0.0	 0.0	 3	   0.000000	 148.160000	   0.000000; % NG
	2	 0.0	 0.0	 3	   0.000000	 148.160000	   0.000000; % NG
	2	 0.0	 0.0	 3	   0.000000	 148.160000	   0.000000; % NG
	2	 0.0	 0.0	 3	   0.000000	 148.160000	   0.000000; % NG
	2	 0.0	 0.0	 3	   0.000000	   0.000000	   0.000000; % NG
	2	 0.0	 0.0	 3	   0.000000	 134.040000	   0.000000; % NG
	2	 0.0	 0.0	 3	   0.000000	 134.040000	   0.000000; % NG
	2	 0.0	 0.0	 3	   0.000000	 134.040000	   0.000000; % NG
	2	 0.0	 0.0	 3	   0.000000	 134.040000	   0.000000; % NG
	2	 0.0	 0.0	 3	   0.000000	 134.040000	   0.000000; % COW
	2	 0.0	 0.0	 3	   0.000000	 126.620000	   0.000000; % NG
	2	 0.0	 0.0	 3	   0.000000	 126.620000	   0.000000; % NG
	2	 0.0	 0.0	 3	   0.000000	   0.000000	   0.000000; % NG
	2	 0.0	 0.0	 3	   0.000000	   0.000000	   0.000000; % PEL
	2	 0.0	 0.0	 3	   0.000000	 130.490000	   0.000000; % NG
	2	 0.0	 0.0	 3	   0.000000	 130.490000	   0.000000; % NG
	2	 0.0	 0.0	 3	   0.000000	 132.330000	   0.000000; % NG
	2	 0.0	 0.0	 3	   0.000000	 132.330000	   0.000000; % NG
	2	 0.0	 0.0	 3	   0.000000	 136.590000	   0.000000; % NG
	2	 0.0	 0.0	 3	   0.000000	 136.590000	   0.000000; % NG
	2	 0.0	 0.0	 3	   0.000000	 139.960000	   0.000000; % COW
	2	 0.0	 0.0	 3	   0.000000	 128.210000	   0.000000; % NG
	2	 0.0	 0.0	 3	   0.000000	 128.210000	   0.000000; % NG
	2	 0.0	 0.0	 3	   0.000000	 128.210000	   0.000000; % NG
	2	 0.0	 0.0	 3	   0.000000	 128.210000	   0.000000; % NG
	2	 0.0	 0.0	 3	   0.000000	 128.210000	   0.000000; % NG
	2	 0.0	 0.0	 3	   0.000000	 137.400000	   0.000000; % COW
	2	 0.0	 0.0	 3	   0.000000	 137.400000	   0.000000; % COW
	2	 0.0	 0.0	 3	   0.000000	 137.400000	   0.000000; % COW
	2	 0.0	 0.0	 3	   0.000000	 137.400000	   0.000000; % NG
	2	 0.0	 0.0	 3	   0.000000	 129.990000	   0.000000; % NG
	2	 0.0	 0.0	 3	   0.000000	 129.990000	   0.000000; % NG
	2	 0.0	 0.0	 3	   0.000000	 129.990000	   0.000000; % COW
	2	 0.0	 0.0	 3	   0.000000	 135.600000	   0.000000; % COW
	2	 0.0	 0.0	 3	   0.000000	 135.600000	   0.000000; % NG
	2	 0.0	 0.0	 3	   0.000000	 135.600000	   0.000000; % NG
	2	 0.0	 0.0	 3	   0.000000	 163.160000	   0.000000; % NG
	2	 0.0	 0.0	 3	   0.000000	 163.160000	   0.000000; % NG
	2	 0.0	 0.0	 3	   0.000000	 163.160000	   0.000000; % COW
	2	 0.0	 0.0	 3	   0.000000	 163.160000	   0.000000; % NG
	2	 0.0	 0.0	 3	   0.000000	 163.160000	   0.000000; % NG
	2	 0.0	 0.0	 3	   0.000000	 163.160000	   0.000000; % COW
	2	 0.0	 0.0	 3	   0.000000	 163.160000	   0.000000; % COW
	2	 0.0	 0.0	 3	   0.000000	 139.010000	   0.000000; % NG
	2	 0.0	 0.0	 3	   0.000000	 139.010000	   0.000000; % COW
	2	 0.0	 0.0	 3	   0.000000	 139.010000	   0.000000; % NG
	2	 0.0	 0.0	 3	   0.000000	 139.010000	   0.000000; % COW
	2	 0.0	 0.0	 3	   0.000000	 139.010000	   0.000000; % NG
	2	 0.0	 0.0	 3	   0.000000	 139.010000	   0.000000; % NG
	2	 0.0	 0.0	 3	   0.000000	 139.010000	   0.000000; % NG
	2	 0.0	 0.0	 3	   0.000000	 139.010000	   0.000000; % NG
	2	 0.0	 0.0	 3	   0.000000	 125.480000	   0.000000; % NG
	2	 0.0	 0.0	 3	   0.000000	 125.480000	   0.000000; % NG
	2	 0.0	 0.0	 3	   0.000000	 125.480000	   0.000000; % NG
	2	 0.0	 0.0	 3	   0.000000	 125.480000	   0.000000; % NG
	2	 0.0	 0.0	 3	   0.000000	 125.480000	   0.000000; % COW
	2	 0.0	 0.0	 3	   0.000000	 137.400000	   0.000000; % NG
	2	 0.0	 0.0	 3	   0.000000	 137.400000	   0.000000; % NG
	2	 0.0	 0.0	 3	   0.000000	 137.400000	   0.000000; % NG
	2	 0.0	 0.0	 3	   0.000000	 137.400000	   0.000000; % COW
	2	 0.0	 0.0	 3	   0.000000	 137.400000	   0.000000; % NG
	2	 0.0	 0.0	 3	   0.000000	   0.000000	   0.000000; % NG
	2	 0.0	 0.0	 3	   0.000000	   0.000000	   0.000000; % NG
	2	 0.0	 0.0	 3	   0.000000	   0.000000	   0.000000; % NG
	2	 0.0	 0.0	 3	   0.000000	   0.000000	   0.000000; % NG
	2	 0.0	 0.0	 3	   0.000000	   0.000000	   0.000000; % PEL
	2	 0.0	 0.0	 3	   0.000000	   0.000000	   0.000000; % NG
	2	 0.0	 0.0	 3	   0.000000	   0.000000	   0.000000; % PEL
	2	 0.0	 0.0	 3	   0.000000	   0.000000	   0.000000; % COW
	2	 0.0	 0.0	 3	   0.000000	   0.000000	   0.000000; % NG
	2	 0.0	 0.0	 3	   0.000000	   0.000000	   0.000000; % NG
	2	 0.0	 0.0	 3	   0.000000	   0.000000	   0.000000; % NG
	2	 0.0	 0.0	 3	   0.000000	   0.000000	   0.000000; % NG
	2	 0.0	 0.0	 3	   0.000000	   0.000000	   0.000000; % COW
	2	 0.0	 0.0	 3	   0.000000	 107.030000	   0.000000; % NG
	2	 0.0	 0.0	 3	   0.000000	   0.000000	   0.000000; % NG
	2	 0.0	 0.0	 3	   0.000000	   0.000000	   0.000000; % NG
	2	 0.0	 0.0	 3	   0.000000	   0.000000	   0.000000; % PEL
	2	 0.0	 0.0	 3	   0.000000	   0.000000	   0.000000; % PEL
	2	 0.0	 0.0	 3	   0.000000	   0.000000	   0.000000; % PEL
	2	 0.0	 0.0	 3	   0.000000	   0.000000	   0.000000; % NG
	2	 0.0	 0.0	 3	   0.000000	   0.000000	   0.000000; % NG
...
];

%% branch data
%	fbus	tbus	r	x	b	rateA	rateB	rateC	ratio	angle	status	angmin	angmax
mpc.branch = [
	10330	 10331	 1e-05	 8e-05	 0.0	 183.0	 183.0	 183.0	 0.0	 0.0	 1	 -30.0	 30.0;
	10300	 10355	 0.05932	 0.20245	 0.0	 122.0	 122.0	 122.0	 0.0	 0.0	 1	 -30.0	 30.0;
	10300	 10360	 0.02058	 0.05185	 0.0	 106.0	 106.0	 106.0	 0.0	 0.0	 1	 -30.0	 30.0;
	10367	 10201	 2e-05	 -0.04958	 0.0	 659.0	 200.0	 200.0	 0.999	 0.0	 1	 -30.0	 30.0;
	10367	 10202	 6e-05	 0.08346	 0.0	 391.0	 200.0	 200.0	 0.99999	 0.0	 1	 -30.0	 30.0;
	10366	 10367	 0.0026	 0.25917	 0.0	 127.0	 127.0	 127.0	 0.99999	 0.0	 1	 -30.0	 30.0;
	10368	 10215	 2e-05	 -0.04961	 0.0	 659.0	 200.0	 200.0	 0.999	 0.0	 1	 -30.0	 30.0;
	10368	 10216	 6e-05	 0.08373	 0.0	 390.0	 200.0	 200.0	 0.99999	 0.0	 1	 -30.0	 30.0;
	10369	 10368	 0.0026	 0.26125	 0.0	 126.0	 126.0	 126.0	 0.99999	 0.0	 1	 -30.0	 30.0;
	10090	 10083	 8e-05	 0.00079	 0.41456	 736.0	 736.0	 736.0	 0.0	 0.0	 1	 -30.0	 30.0;
	10138	 10164	 0.00168	 0.01733	 0.75504	 752.0	 752.0	 752.0	 0.0	 0.0	 1	 -30.0	 30.0;
	10139	 10109	 0.00071	 0.00594	 0.27872	 680.0	 680.0	 680.0	 0.0	 0.0	 1	 -30.0	 30.0;
	10139	 10144	 0.00075	 0.00681	 0.312	 707.0	 707.0	 707.0	 0.0	 0.0	 1	 -30.0	 30.0;
	10139	 10153	 0.00194	 0.02	 0.8336	 751.0	 751.0	 751.0	 0.0	 0.0	 1	 -30.0	 30.0;
	10140	 10110	 0.00071	 0.00594	 0.27872	 680.0	 680.0	 680.0	 0.0	 0.0	 1	 -30.0	 30.0;
	10140	 10143	 0.00075	 0.00681	 0.312	 707.0	 707.0	 707.0	 0.0	 0.0	 1	 -30.0	 30.0;
	10140	 10153	 0.00194	 0.02	 0.8336	 751.0	 751.0	 751.0	 0.0	 0.0	 1	 -30.0	 30.0;
	10141	 10153	 0.00233	 0.01696	 0.70784	 637.0	 637.0	 637.0	 0.0	 0.0	 1	 -30.0	 30.0;
	10090	 10085	 0.00017	 0.00148	 1.23008	 693.0	 693.0	 693.0	 0.0	 0.0	 1	 -30.0	 30.0;
	10141	 10158	 0.00204	 0.01707	 0.71344	 680.0	 680.0	 680.0	 0.0	 0.0	 1	 -30.0	 30.0;
	10141	 10158	 0.00204	 0.01707	 0.71344	 680.0	 680.0	 680.0	 0.0	 0.0	 1	 -30.0	 30.0;
	10143	 10144	 1e-05	 6e-05	 0.0	 581.0	 581.0	 581.0	 0.0	 0.0	 1	 -30.0	 30.0;
	10143	 10153	 0.00169	 0.01381	 0.6496	 673.0	 673.0	 673.0	 0.0	 0.0	 1	 -30.0	 30.0;
	10143	 10156	 0.00119	 0.00969	 0.4544	 672.0	 672.0	 672.0	 0.0	 0.0	 1	 -30.0	 30.0;
	10144	 10126	 0.00306	 0.02537	 1.19168	 677.0	 677.0	 677.0	 0.0	 0.0	 1	 -30.0	 30.0;
	10144	 10153	 0.00169	 0.01381	 0.6496	 673.0	 673.0	 673.0	 0.0	 0.0	 1	 -30.0	 30.0;
	10144	 10165	 0.00244	 0.02044	 0.9584	 681.0	 681.0	 681.0	 0.0	 0.0	 1	 -30.0	 30.0;
	10091	 10090	 9e-05	 0.00106	 1.10432	 801.0	 801.0	 801.0	 0.0	 0.0	 1	 -30.0	 30.0;
	10145	 10147	 0.00194	 0.01606	 0.75456	 677.0	 677.0	 677.0	 0.0	 0.0	 1	 -30.0	 30.0;
	10145	 10158	 0.00189	 0.01232	 0.61088	 604.0	 604.0	 604.0	 0.0	 0.0	 1	 -30.0	 30.0;
	10171	 10094	 0.0	 6e-05	 0.0	 99999.0	 1593.0	 1593.0	 0.0	 0.0	 1	 -30.0	 30.0;
	10145	 10082	 0.00091	 0.00923	 0.39197	 746.0	 746.0	 746.0	 0.0	 0.0	 1	 -30.0	 30.0;
	10145	 10082	 0.00091	 0.00923	 0.39197	 746.0	 746.0	 746.0	 0.0	 0.0	 1	 -30.0	 30.0;
	10146	 10154	 0.00503	 0.01845	 0.05812	 253.0	 253.0	 253.0	 0.0	 0.0	 1	 -30.0	 30.0;
	10172	 10095	 0.0	 6e-05	 0.0	 99999.0	 1386.0	 1386.0	 0.0	 0.0	 1	 -30.0	 30.0;
	10147	 10153	 0.00156	 0.01288	 0.6032	 676.0	 676.0	 676.0	 0.0	 0.0	 1	 -30.0	 30.0;
	10173	 10095	 0.0	 6e-05	 0.0	 99999.0	 1386.0	 1386.0	 0.0	 0.0	 1	 -30.0	 30.0;
	10147	 10153	 0.00156	 0.01288	 0.6032	 676.0	 676.0	 676.0	 0.0	 0.0	 1	 -30.0	 30.0;
	10174	 10096	 2e-05	 0.00016	 0.0008	 666.0	 666.0	 666.0	 0.0	 0.0	 1	 -30.0	 30.0;
	10147	 10161	 0.00113	 0.00962	 0.4528	 686.0	 686.0	 686.0	 0.0	 0.0	 1	 -30.0	 30.0;
	10176	 10098	 0.00029	 0.00219	 0.11056	 648.0	 648.0	 648.0	 0.0	 0.0	 1	 -30.0	 30.0;
	10177	 10098	 0.00029	 0.00219	 0.11056	 648.0	 648.0	 648.0	 0.0	 0.0	 1	 -30.0	 30.0;
	10147	 10169	 0.00041	 0.00423	 0.18496	 752.0	 752.0	 752.0	 0.0	 0.0	 1	 -30.0	 30.0;
	10147	 10170	 0.00041	 0.00423	 0.18496	 752.0	 752.0	 752.0	 0.0	 0.0	 1	 -30.0	 30.0;
	10091	 10090	 9e-05	 0.00106	 1.10432	 801.0	 801.0	 801.0	 0.0	 0.0	 1	 -30.0	 30.0;
...